1

                    Execution started at 20160815.171046         



                    ---------------------------------------
                                     SWAN
                    SIMULATION OF WAVES IN NEAR SHORE AREAS
                             VERSION NUMBER 41.01               
                    ---------------------------------------


    
 PROJ 'SOCAL' ''
    
 CGRID -121 32 0. 4 3 24 18 CIRCLE 36 0.0521 1. 31
 Resolution in sigma-space: df/f =  0.1000
    
 INPGRID BOTTOM -121 32 0. 239 179  .0167 .0167 EXC -99.
    
 READINP BOTTOM 1. '.\inputs\SoCal_low.txt' 1 0 FREE
 ** Terminating error: File cannot be opened/does not exist: .\inputs\SoCal_low.txt                                                          
