1

                    Execution started at 20160815.185537         



                    ---------------------------------------
                                     SWAN
                    SIMULATION OF WAVES IN NEAR SHORE AREAS
                             VERSION NUMBER 41.01               
                    ---------------------------------------


    
 !*************************HEADING************************
    
 PROJ 'LA' ''
    
 !
    
 !Los Angeles swell chart.
    
 !
    
 !Data: Nested from Southern California
    
 !********************MODEL INPUT*************************
    
 !
    
 ! SET INRHOG 1
    
 !
    
 !COORDINATES SPHE
    
 !
    
 CGRID -119.25    33.5   0. 1 .75 40 30 CIRCLE 36 0.0521 1. 31
 Resolution in sigma-space: df/f =  0.1000
    
 !
    
 !INPGRID BOTTOM -121 32 0. 240 179 .01666666 .01666666 EXC -99.
    
 !
    
 INPGRID BOTTOM -121 32 0. 4799 3599 .0008333333333 .0008333333333 EXC -99.
    
 !
    
 READINP BOTTOM 1. 'SoCal_high.txt' 1 0 FREE
 ** Warning          : Point removed from computational grid
Point with index (     1,    28) was removed from computational grid, because it is part of a 1D configuration or 1D connection.
 ** Warning          : Point removed from computational grid
Point with index (    41,    10) was removed from computational grid, because it is part of a 1D configuration or 1D connection.
 ** Warning          : Point removed from computational grid
Point with index (    41,    11) was removed from computational grid, because it is part of a 1D configuration or 1D connection.
    
 !
    
 !
    
 BOU SHAP JON 3.3 PEAK DSPR DEGR
    
 !
    
 WIND 1.0 180
    
 !
    
 BOUNDNEST NEST 'nestLA' CLOSED
 Warning: no grid points on interval from    -119.2475     33.5000 to    -119.2450     33.5000
 Warning: no grid points on interval from    -119.2450     33.5000 to    -119.2425     33.5000
 Warning: no grid points on interval from    -119.2425     33.5000 to    -119.2400     33.5000
 Warning: no grid points on interval from    -119.2400     33.5000 to    -119.2375     33.5000
 Warning: no grid points on interval from    -119.2375     33.5000 to    -119.2350     33.5000
 Warning: no grid points on interval from    -119.2350     33.5000 to    -119.2325     33.5000
 Warning: no grid points on interval from    -119.2325     33.5000 to    -119.2300     33.5000
 Warning: no grid points on interval from    -119.2300     33.5000 to    -119.2275     33.5000
 Warning: no grid points on interval from    -119.2225     33.5000 to    -119.2200     33.5000
 Warning: no grid points on interval from    -119.2200     33.5000 to    -119.2175     33.5000
 Warning: no grid points on interval from    -119.2175     33.5000 to    -119.2150     33.5000
 Warning: no grid points on interval from    -119.2150     33.5000 to    -119.2125     33.5000
 Warning: no grid points on interval from    -119.2125     33.5000 to    -119.2100     33.5000
 Warning: no grid points on interval from    -119.2100     33.5000 to    -119.2075     33.5000
 Warning: no grid points on interval from    -119.2075     33.5000 to    -119.2050     33.5000
 Warning: no grid points on interval from    -119.2050     33.5000 to    -119.2025     33.5000
 Warning: no grid points on interval from    -119.1975     33.5000 to    -119.1950     33.5000
 Warning: no grid points on interval from    -119.1950     33.5000 to    -119.1925     33.5000
 Warning: no grid points on interval from    -119.1925     33.5000 to    -119.1900     33.5000
 Warning: no grid points on interval from    -119.1900     33.5000 to    -119.1875     33.5000
 Warning: no grid points on interval from    -119.1875     33.5000 to    -119.1850     33.5000
 Warning: no grid points on interval from    -119.1850     33.5000 to    -119.1825     33.5000
 Warning: no grid points on interval from    -119.1825     33.5000 to    -119.1800     33.5000
 Warning: no grid points on interval from    -119.1800     33.5000 to    -119.1775     33.5000
 Warning: no grid points on interval from    -119.1725     33.5000 to    -119.1700     33.5000
 Warning: no grid points on interval from    -119.1700     33.5000 to    -119.1675     33.5000
 Warning: no grid points on interval from    -119.1675     33.5000 to    -119.1650     33.5000
 Warning: no grid points on interval from    -119.1650     33.5000 to    -119.1625     33.5000
 Warning: no grid points on interval from    -119.1625     33.5000 to    -119.1600     33.5000
 Warning: no grid points on interval from    -119.1600     33.5000 to    -119.1575     33.5000
 Warning: no grid points on interval from    -119.1575     33.5000 to    -119.1550     33.5000
 Warning: no grid points on interval from    -119.1550     33.5000 to    -119.1525     33.5000
 Warning: no grid points on interval from    -119.1475     33.5000 to    -119.1450     33.5000
 Warning: no grid points on interval from    -119.1450     33.5000 to    -119.1425     33.5000
 Warning: no grid points on interval from    -119.1425     33.5000 to    -119.1400     33.5000
 Warning: no grid points on interval from    -119.1400     33.5000 to    -119.1375     33.5000
 Warning: no grid points on interval from    -119.1375     33.5000 to    -119.1350     33.5000
 Warning: no grid points on interval from    -119.1350     33.5000 to    -119.1325     33.5000
 Warning: no grid points on interval from    -119.1325     33.5000 to    -119.1300     33.5000
 Warning: no grid points on interval from    -119.1300     33.5000 to    -119.1275     33.5000
 Warning: no grid points on interval from    -119.1225     33.5000 to    -119.1200     33.5000
 Warning: no grid points on interval from    -119.1200     33.5000 to    -119.1175     33.5000
 Warning: no grid points on interval from    -119.1175     33.5000 to    -119.1150     33.5000
 Warning: no grid points on interval from    -119.1150     33.5000 to    -119.1125     33.5000
 Warning: no grid points on interval from    -119.1125     33.5000 to    -119.1100     33.5000
 Warning: no grid points on interval from    -119.1100     33.5000 to    -119.1075     33.5000
 Warning: no grid points on interval from    -119.1075     33.5000 to    -119.1050     33.5000
 Warning: no grid points on interval from    -119.1050     33.5000 to    -119.1025     33.5000
 Warning: no grid points on interval from    -119.0975     33.5000 to    -119.0950     33.5000
 Warning: no grid points on interval from    -119.0950     33.5000 to    -119.0925     33.5000
 Warning: no grid points on interval from    -119.0925     33.5000 to    -119.0900     33.5000
 Warning: no grid points on interval from    -119.0900     33.5000 to    -119.0875     33.5000
 Warning: no grid points on interval from    -119.0875     33.5000 to    -119.0850     33.5000
 Warning: no grid points on interval from    -119.0850     33.5000 to    -119.0825     33.5000
 Warning: no grid points on interval from    -119.0825     33.5000 to    -119.0800     33.5000
 Warning: no grid points on interval from    -119.0800     33.5000 to    -119.0775     33.5000
 Warning: no grid points on interval from    -119.0725     33.5000 to    -119.0700     33.5000
 Warning: no grid points on interval from    -119.0700     33.5000 to    -119.0675     33.5000
 Warning: no grid points on interval from    -119.0675     33.5000 to    -119.0650     33.5000
 Warning: no grid points on interval from    -119.0650     33.5000 to    -119.0625     33.5000
 Warning: no grid points on interval from    -119.0625     33.5000 to    -119.0600     33.5000
 Warning: no grid points on interval from    -119.0600     33.5000 to    -119.0575     33.5000
 Warning: no grid points on interval from    -119.0575     33.5000 to    -119.0550     33.5000
 Warning: no grid points on interval from    -119.0550     33.5000 to    -119.0525     33.5000
 Warning: no grid points on interval from    -119.0475     33.5000 to    -119.0450     33.5000
 Warning: no grid points on interval from    -119.0450     33.5000 to    -119.0425     33.5000
 Warning: no grid points on interval from    -119.0425     33.5000 to    -119.0400     33.5000
 Warning: no grid points on interval from    -119.0400     33.5000 to    -119.0375     33.5000
 Warning: no grid points on interval from    -119.0375     33.5000 to    -119.0350     33.5000
 Warning: no grid points on interval from    -119.0350     33.5000 to    -119.0325     33.5000
 Warning: no grid points on interval from    -119.0325     33.5000 to    -119.0300     33.5000
 Warning: no grid points on interval from    -119.0300     33.5000 to    -119.0275     33.5000
 Warning: no grid points on interval from    -119.0225     33.5000 to    -119.0200     33.5000
 Warning: no grid points on interval from    -119.0200     33.5000 to    -119.0175     33.5000
 Warning: no grid points on interval from    -119.0175     33.5000 to    -119.0150     33.5000
 Warning: no grid points on interval from    -119.0150     33.5000 to    -119.0125     33.5000
 Warning: no grid points on interval from    -119.0125     33.5000 to    -119.0100     33.5000
 Warning: no grid points on interval from    -119.0100     33.5000 to    -119.0075     33.5000
 Warning: no grid points on interval from    -119.0075     33.5000 to    -119.0050     33.5000
 Warning: no grid points on interval from    -119.0050     33.5000 to    -119.0025     33.5000
 Warning: no grid points on interval from    -118.9975     33.5000 to    -118.9950     33.5000
 Warning: no grid points on interval from    -118.9950     33.5000 to    -118.9925     33.5000
 Warning: no grid points on interval from    -118.9925     33.5000 to    -118.9900     33.5000
 Warning: no grid points on interval from    -118.9900     33.5000 to    -118.9875     33.5000
 Warning: no grid points on interval from    -118.9875     33.5000 to    -118.9850     33.5000
 Warning: no grid points on interval from    -118.9850     33.5000 to    -118.9825     33.5000
 Warning: no grid points on interval from    -118.9825     33.5000 to    -118.9800     33.5000
 Warning: no grid points on interval from    -118.9800     33.5000 to    -118.9775     33.5000
 Warning: no grid points on interval from    -118.9725     33.5000 to    -118.9700     33.5000
 Warning: no grid points on interval from    -118.9700     33.5000 to    -118.9675     33.5000
 Warning: no grid points on interval from    -118.9675     33.5000 to    -118.9650     33.5000
 Warning: no grid points on interval from    -118.9650     33.5000 to    -118.9625     33.5000
 Warning: no grid points on interval from    -118.9625     33.5000 to    -118.9600     33.5000
 Warning: no grid points on interval from    -118.9600     33.5000 to    -118.9575     33.5000
 Warning: no grid points on interval from    -118.9575     33.5000 to    -118.9550     33.5000
 Warning: no grid points on interval from    -118.9550     33.5000 to    -118.9525     33.5000
 Warning: no grid points on interval from    -118.9475     33.5000 to    -118.9450     33.5000
 Warning: no grid points on interval from    -118.9450     33.5000 to    -118.9425     33.5000
 Warning: no grid points on interval from    -118.9425     33.5000 to    -118.9400     33.5000
 Warning: no grid points on interval from    -118.9400     33.5000 to    -118.9375     33.5000
 Warning: no grid points on interval from    -118.9375     33.5000 to    -118.9350     33.5000
 Warning: no grid points on interval from    -118.9350     33.5000 to    -118.9325     33.5000
 Warning: no grid points on interval from    -118.9325     33.5000 to    -118.9300     33.5000
 Warning: no grid points on interval from    -118.9300     33.5000 to    -118.9275     33.5000
 Warning: no grid points on interval from    -118.9225     33.5000 to    -118.9200     33.5000
 Warning: no grid points on interval from    -118.9200     33.5000 to    -118.9175     33.5000
 Warning: no grid points on interval from    -118.9175     33.5000 to    -118.9150     33.5000
 Warning: no grid points on interval from    -118.9150     33.5000 to    -118.9125     33.5000
 Warning: no grid points on interval from    -118.9125     33.5000 to    -118.9100     33.5000
 Warning: no grid points on interval from    -118.9100     33.5000 to    -118.9075     33.5000
 Warning: no grid points on interval from    -118.9075     33.5000 to    -118.9050     33.5000
 Warning: no grid points on interval from    -118.9050     33.5000 to    -118.9025     33.5000
 Warning: no grid points on interval from    -118.8975     33.5000 to    -118.8950     33.5000
 Warning: no grid points on interval from    -118.8950     33.5000 to    -118.8925     33.5000
 Warning: no grid points on interval from    -118.8925     33.5000 to    -118.8900     33.5000
 Warning: no grid points on interval from    -118.8900     33.5000 to    -118.8875     33.5000
 Warning: no grid points on interval from    -118.8875     33.5000 to    -118.8850     33.5000
 Warning: no grid points on interval from    -118.8850     33.5000 to    -118.8825     33.5000
 Warning: no grid points on interval from    -118.8825     33.5000 to    -118.8800     33.5000
 Warning: no grid points on interval from    -118.8800     33.5000 to    -118.8775     33.5000
 Warning: no grid points on interval from    -118.8725     33.5000 to    -118.8700     33.5000
 Warning: no grid points on interval from    -118.8700     33.5000 to    -118.8675     33.5000
 Warning: no grid points on interval from    -118.8675     33.5000 to    -118.8650     33.5000
 Warning: no grid points on interval from    -118.8650     33.5000 to    -118.8625     33.5000
 Warning: no grid points on interval from    -118.8625     33.5000 to    -118.8600     33.5000
 Warning: no grid points on interval from    -118.8600     33.5000 to    -118.8575     33.5000
 Warning: no grid points on interval from    -118.8575     33.5000 to    -118.8550     33.5000
 Warning: no grid points on interval from    -118.8550     33.5000 to    -118.8525     33.5000
 Warning: no grid points on interval from    -118.8475     33.5000 to    -118.8450     33.5000
 Warning: no grid points on interval from    -118.8450     33.5000 to    -118.8425     33.5000
 Warning: no grid points on interval from    -118.8425     33.5000 to    -118.8400     33.5000
 Warning: no grid points on interval from    -118.8400     33.5000 to    -118.8375     33.5000
 Warning: no grid points on interval from    -118.8375     33.5000 to    -118.8350     33.5000
 Warning: no grid points on interval from    -118.8350     33.5000 to    -118.8325     33.5000
 Warning: no grid points on interval from    -118.8325     33.5000 to    -118.8300     33.5000
 Warning: no grid points on interval from    -118.8300     33.5000 to    -118.8275     33.5000
 Warning: no grid points on interval from    -118.8225     33.5000 to    -118.8200     33.5000
 Warning: no grid points on interval from    -118.8200     33.5000 to    -118.8175     33.5000
 Warning: no grid points on interval from    -118.8175     33.5000 to    -118.8150     33.5000
 Warning: no grid points on interval from    -118.8150     33.5000 to    -118.8125     33.5000
 Warning: no grid points on interval from    -118.8125     33.5000 to    -118.8100     33.5000
 Warning: no grid points on interval from    -118.8100     33.5000 to    -118.8075     33.5000
 Warning: no grid points on interval from    -118.8075     33.5000 to    -118.8050     33.5000
 Warning: no grid points on interval from    -118.8050     33.5000 to    -118.8025     33.5000
 Warning: no grid points on interval from    -118.7975     33.5000 to    -118.7950     33.5000
 Warning: no grid points on interval from    -118.7950     33.5000 to    -118.7925     33.5000
 Warning: no grid points on interval from    -118.7925     33.5000 to    -118.7900     33.5000
 Warning: no grid points on interval from    -118.7900     33.5000 to    -118.7875     33.5000
 Warning: no grid points on interval from    -118.7875     33.5000 to    -118.7850     33.5000
 Warning: no grid points on interval from    -118.7850     33.5000 to    -118.7825     33.5000
 Warning: no grid points on interval from    -118.7825     33.5000 to    -118.7800     33.5000
 Warning: no grid points on interval from    -118.7800     33.5000 to    -118.7775     33.5000
 Warning: no grid points on interval from    -118.7725     33.5000 to    -118.7700     33.5000
 Warning: no grid points on interval from    -118.7700     33.5000 to    -118.7675     33.5000
 Warning: no grid points on interval from    -118.7675     33.5000 to    -118.7650     33.5000
 Warning: no grid points on interval from    -118.7650     33.5000 to    -118.7625     33.5000
 Warning: no grid points on interval from    -118.7625     33.5000 to    -118.7600     33.5000
 Warning: no grid points on interval from    -118.7600     33.5000 to    -118.7575     33.5000
 Warning: no grid points on interval from    -118.7575     33.5000 to    -118.7550     33.5000
 Warning: no grid points on interval from    -118.7550     33.5000 to    -118.7525     33.5000
 Warning: no grid points on interval from    -118.7475     33.5000 to    -118.7450     33.5000
 Warning: no grid points on interval from    -118.7450     33.5000 to    -118.7425     33.5000
 Warning: no grid points on interval from    -118.7425     33.5000 to    -118.7400     33.5000
 Warning: no grid points on interval from    -118.7400     33.5000 to    -118.7375     33.5000
 Warning: no grid points on interval from    -118.7375     33.5000 to    -118.7350     33.5000
 Warning: no grid points on interval from    -118.7350     33.5000 to    -118.7325     33.5000
 Warning: no grid points on interval from    -118.7325     33.5000 to    -118.7300     33.5000
 Warning: no grid points on interval from    -118.7300     33.5000 to    -118.7275     33.5000
 Warning: no grid points on interval from    -118.7225     33.5000 to    -118.7200     33.5000
 Warning: no grid points on interval from    -118.7200     33.5000 to    -118.7175     33.5000
 Warning: no grid points on interval from    -118.7175     33.5000 to    -118.7150     33.5000
 Warning: no grid points on interval from    -118.7150     33.5000 to    -118.7125     33.5000
 Warning: no grid points on interval from    -118.7125     33.5000 to    -118.7100     33.5000
 Warning: no grid points on interval from    -118.7100     33.5000 to    -118.7075     33.5000
 Warning: no grid points on interval from    -118.7075     33.5000 to    -118.7050     33.5000
 Warning: no grid points on interval from    -118.7050     33.5000 to    -118.7025     33.5000
 Warning: no grid points on interval from    -118.6975     33.5000 to    -118.6950     33.5000
 Warning: no grid points on interval from    -118.6950     33.5000 to    -118.6925     33.5000
 Warning: no grid points on interval from    -118.6925     33.5000 to    -118.6900     33.5000
 Warning: no grid points on interval from    -118.6900     33.5000 to    -118.6875     33.5000
 Warning: no grid points on interval from    -118.6875     33.5000 to    -118.6850     33.5000
 Warning: no grid points on interval from    -118.6850     33.5000 to    -118.6825     33.5000
 Warning: no grid points on interval from    -118.6825     33.5000 to    -118.6800     33.5000
 Warning: no grid points on interval from    -118.6800     33.5000 to    -118.6775     33.5000
 Warning: no grid points on interval from    -118.6725     33.5000 to    -118.6700     33.5000
 Warning: no grid points on interval from    -118.6700     33.5000 to    -118.6675     33.5000
 Warning: no grid points on interval from    -118.6675     33.5000 to    -118.6650     33.5000
 Warning: no grid points on interval from    -118.6650     33.5000 to    -118.6625     33.5000
 Warning: no grid points on interval from    -118.6625     33.5000 to    -118.6600     33.5000
 Warning: no grid points on interval from    -118.6600     33.5000 to    -118.6575     33.5000
 Warning: no grid points on interval from    -118.6575     33.5000 to    -118.6550     33.5000
 Warning: no grid points on interval from    -118.6550     33.5000 to    -118.6525     33.5000
 Warning: no grid points on interval from    -118.6475     33.5000 to    -118.6450     33.5000
 Warning: no grid points on interval from    -118.6450     33.5000 to    -118.6425     33.5000
 Warning: no grid points on interval from    -118.6425     33.5000 to    -118.6400     33.5000
 Warning: no grid points on interval from    -118.6400     33.5000 to    -118.6375     33.5000
 Warning: no grid points on interval from    -118.6375     33.5000 to    -118.6350     33.5000
 Warning: no grid points on interval from    -118.6350     33.5000 to    -118.6325     33.5000
 Warning: no grid points on interval from    -118.6325     33.5000 to    -118.6300     33.5000
 Warning: no grid points on interval from    -118.6300     33.5000 to    -118.6275     33.5000
 Warning: no grid points on interval from    -118.6225     33.5000 to    -118.6200     33.5000
 Warning: no grid points on interval from    -118.6200     33.5000 to    -118.6175     33.5000
 Warning: no grid points on interval from    -118.6175     33.5000 to    -118.6150     33.5000
 Warning: no grid points on interval from    -118.6150     33.5000 to    -118.6125     33.5000
 Warning: no grid points on interval from    -118.6125     33.5000 to    -118.6100     33.5000
 Warning: no grid points on interval from    -118.6100     33.5000 to    -118.6075     33.5000
 Warning: no grid points on interval from    -118.6075     33.5000 to    -118.6050     33.5000
 Warning: no grid points on interval from    -118.6050     33.5000 to    -118.6025     33.5000
 Warning: no grid points on interval from    -118.5975     33.5000 to    -118.5950     33.5000
 Warning: no grid points on interval from    -118.5950     33.5000 to    -118.5925     33.5000
 Warning: no grid points on interval from    -118.5925     33.5000 to    -118.5900     33.5000
 Warning: no grid points on interval from    -118.5900     33.5000 to    -118.5875     33.5000
 Warning: no grid points on interval from    -118.5875     33.5000 to    -118.5850     33.5000
 Warning: no grid points on interval from    -118.5850     33.5000 to    -118.5825     33.5000
 Warning: no grid points on interval from    -118.5825     33.5000 to    -118.5800     33.5000
 Warning: no grid points on interval from    -118.5800     33.5000 to    -118.5775     33.5000
 Warning: no grid points on interval from    -118.5725     33.5000 to    -118.5700     33.5000
 Warning: no grid points on interval from    -118.5700     33.5000 to    -118.5675     33.5000
 Warning: no grid points on interval from    -118.5675     33.5000 to    -118.5650     33.5000
 Warning: no grid points on interval from    -118.5650     33.5000 to    -118.5625     33.5000
 Warning: no grid points on interval from    -118.5625     33.5000 to    -118.5600     33.5000
 Warning: no grid points on interval from    -118.5600     33.5000 to    -118.5575     33.5000
 Warning: no grid points on interval from    -118.5575     33.5000 to    -118.5550     33.5000
 Warning: no grid points on interval from    -118.5550     33.5000 to    -118.5525     33.5000
 Warning: no grid points on interval from    -118.5475     33.5000 to    -118.5450     33.5000
 Warning: no grid points on interval from    -118.5450     33.5000 to    -118.5425     33.5000
 Warning: no grid points on interval from    -118.5425     33.5000 to    -118.5400     33.5000
 Warning: no grid points on interval from    -118.5400     33.5000 to    -118.5375     33.5000
 Warning: no grid points on interval from    -118.5375     33.5000 to    -118.5350     33.5000
 Warning: no grid points on interval from    -118.5350     33.5000 to    -118.5325     33.5000
 Warning: no grid points on interval from    -118.5325     33.5000 to    -118.5300     33.5000
 Warning: no grid points on interval from    -118.5300     33.5000 to    -118.5275     33.5000
 Warning: no grid points on interval from    -118.5225     33.5000 to    -118.5200     33.5000
 Warning: no grid points on interval from    -118.5200     33.5000 to    -118.5175     33.5000
 Warning: no grid points on interval from    -118.5175     33.5000 to    -118.5150     33.5000
 Warning: no grid points on interval from    -118.5150     33.5000 to    -118.5125     33.5000
 Warning: no grid points on interval from    -118.5125     33.5000 to    -118.5100     33.5000
 Warning: no grid points on interval from    -118.5100     33.5000 to    -118.5075     33.5000
 Warning: no grid points on interval from    -118.5075     33.5000 to    -118.5050     33.5000
 Warning: no grid points on interval from    -118.5050     33.5000 to    -118.5025     33.5000
 Warning: no grid points on interval from    -118.4975     33.5000 to    -118.4950     33.5000
 Warning: no grid points on interval from    -118.4950     33.5000 to    -118.4925     33.5000
 Warning: no grid points on interval from    -118.4925     33.5000 to    -118.4900     33.5000
 Warning: no grid points on interval from    -118.4900     33.5000 to    -118.4875     33.5000
 Warning: no grid points on interval from    -118.4875     33.5000 to    -118.4850     33.5000
 Warning: no grid points on interval from    -118.4850     33.5000 to    -118.4825     33.5000
 Warning: no grid points on interval from    -118.4825     33.5000 to    -118.4800     33.5000
 Warning: no grid points on interval from    -118.4800     33.5000 to    -118.4775     33.5000
 Warning: no grid points on interval from    -118.4725     33.5000 to    -118.4700     33.5000
 Warning: no grid points on interval from    -118.4700     33.5000 to    -118.4675     33.5000
 Warning: no grid points on interval from    -118.4675     33.5000 to    -118.4650     33.5000
 Warning: no grid points on interval from    -118.4650     33.5000 to    -118.4625     33.5000
 Warning: no grid points on interval from    -118.4625     33.5000 to    -118.4600     33.5000
 Warning: no grid points on interval from    -118.4600     33.5000 to    -118.4575     33.5000
 Warning: no grid points on interval from    -118.4575     33.5000 to    -118.4550     33.5000
 Warning: no grid points on interval from    -118.4550     33.5000 to    -118.4525     33.5000
 Warning: no grid points on interval from    -118.4475     33.5000 to    -118.4450     33.5000
 Warning: no grid points on interval from    -118.4450     33.5000 to    -118.4425     33.5000
 Warning: no grid points on interval from    -118.4425     33.5000 to    -118.4400     33.5000
 Warning: no grid points on interval from    -118.4400     33.5000 to    -118.4375     33.5000
 Warning: no grid points on interval from    -118.4375     33.5000 to    -118.4350     33.5000
 Warning: no grid points on interval from    -118.4350     33.5000 to    -118.4325     33.5000
 Warning: no grid points on interval from    -118.4325     33.5000 to    -118.4300     33.5000
 Warning: no grid points on interval from    -118.4300     33.5000 to    -118.4275     33.5000
 Warning: no grid points on interval from    -118.4225     33.5000 to    -118.4200     33.5000
 Warning: no grid points on interval from    -118.4200     33.5000 to    -118.4175     33.5000
 Warning: no grid points on interval from    -118.4175     33.5000 to    -118.4150     33.5000
 Warning: no grid points on interval from    -118.4150     33.5000 to    -118.4125     33.5000
 Warning: no grid points on interval from    -118.4125     33.5000 to    -118.4100     33.5000
 Warning: no grid points on interval from    -118.4100     33.5000 to    -118.4075     33.5000
 Warning: no grid points on interval from    -118.4075     33.5000 to    -118.4050     33.5000
 Warning: no grid points on interval from    -118.4050     33.5000 to    -118.4025     33.5000
 Warning: no grid points on interval from    -118.3975     33.5000 to    -118.3950     33.5000
 Warning: no grid points on interval from    -118.3950     33.5000 to    -118.3925     33.5000
 Warning: no grid points on interval from    -118.3925     33.5000 to    -118.3900     33.5000
 Warning: no grid points on interval from    -118.3900     33.5000 to    -118.3875     33.5000
 Warning: no grid points on interval from    -118.3875     33.5000 to    -118.3850     33.5000
 Warning: no grid points on interval from    -118.3850     33.5000 to    -118.3825     33.5000
 Warning: no grid points on interval from    -118.3825     33.5000 to    -118.3800     33.5000
 Warning: no grid points on interval from    -118.3800     33.5000 to    -118.3775     33.5000
 Warning: no grid points on interval from    -118.3725     33.5000 to    -118.3700     33.5000
 Warning: no grid points on interval from    -118.3700     33.5000 to    -118.3675     33.5000
 Warning: no grid points on interval from    -118.3675     33.5000 to    -118.3650     33.5000
 Warning: no grid points on interval from    -118.3650     33.5000 to    -118.3625     33.5000
 Warning: no grid points on interval from    -118.3625     33.5000 to    -118.3600     33.5000
 Warning: no grid points on interval from    -118.3600     33.5000 to    -118.3575     33.5000
 Warning: no grid points on interval from    -118.3575     33.5000 to    -118.3550     33.5000
 Warning: no grid points on interval from    -118.3550     33.5000 to    -118.3525     33.5000
 Warning: no grid points on interval from    -118.3475     33.5000 to    -118.3450     33.5000
 Warning: no grid points on interval from    -118.3450     33.5000 to    -118.3425     33.5000
 Warning: no grid points on interval from    -118.3425     33.5000 to    -118.3400     33.5000
 Warning: no grid points on interval from    -118.3400     33.5000 to    -118.3375     33.5000
 Warning: no grid points on interval from    -118.3375     33.5000 to    -118.3350     33.5000
 Warning: no grid points on interval from    -118.3350     33.5000 to    -118.3325     33.5000
 Warning: no grid points on interval from    -118.3325     33.5000 to    -118.3300     33.5000
 Warning: no grid points on interval from    -118.3300     33.5000 to    -118.3275     33.5000
 Warning: no grid points on interval from    -118.3225     33.5000 to    -118.3200     33.5000
 Warning: no grid points on interval from    -118.3200     33.5000 to    -118.3175     33.5000
 Warning: no grid points on interval from    -118.3175     33.5000 to    -118.3150     33.5000
 Warning: no grid points on interval from    -118.3150     33.5000 to    -118.3125     33.5000
 Warning: no grid points on interval from    -118.3125     33.5000 to    -118.3100     33.5000
 Warning: no grid points on interval from    -118.3100     33.5000 to    -118.3075     33.5000
 Warning: no grid points on interval from    -118.3075     33.5000 to    -118.3050     33.5000
 Warning: no grid points on interval from    -118.3050     33.5000 to    -118.3025     33.5000
 Warning: no grid points on interval from    -118.2975     33.5000 to    -118.2950     33.5000
 Warning: no grid points on interval from    -118.2950     33.5000 to    -118.2925     33.5000
 Warning: no grid points on interval from    -118.2925     33.5000 to    -118.2900     33.5000
 Warning: no grid points on interval from    -118.2900     33.5000 to    -118.2875     33.5000
 Warning: no grid points on interval from    -118.2875     33.5000 to    -118.2850     33.5000
 Warning: no grid points on interval from    -118.2850     33.5000 to    -118.2825     33.5000
 Warning: no grid points on interval from    -118.2825     33.5000 to    -118.2800     33.5000
 Warning: no grid points on interval from    -118.2800     33.5000 to    -118.2775     33.5000
 Warning: no grid points on interval from    -118.2725     33.5000 to    -118.2700     33.5000
 Warning: no grid points on interval from    -118.2700     33.5000 to    -118.2675     33.5000
 Warning: no grid points on interval from    -118.2675     33.5000 to    -118.2650     33.5000
 Warning: no grid points on interval from    -118.2650     33.5000 to    -118.2625     33.5000
 Warning: no grid points on interval from    -118.2625     33.5000 to    -118.2600     33.5000
 Warning: no grid points on interval from    -118.2600     33.5000 to    -118.2575     33.5000
 Warning: no grid points on interval from    -118.2575     33.5000 to    -118.2550     33.5000
 Warning: no grid points on interval from    -118.2550     33.5000 to    -118.2525     33.5000
 Warning: no grid points on interval from    -118.2500     33.5025 to    -118.2500     33.5050
 Warning: no grid points on interval from    -118.2500     33.5050 to    -118.2500     33.5075
 Warning: no grid points on interval from    -118.2500     33.5075 to    -118.2500     33.5100
 Warning: no grid points on interval from    -118.2500     33.5100 to    -118.2500     33.5125
 Warning: no grid points on interval from    -118.2500     33.5125 to    -118.2500     33.5150
 Warning: no grid points on interval from    -118.2500     33.5150 to    -118.2500     33.5175
 Warning: no grid points on interval from    -118.2500     33.5175 to    -118.2500     33.5200
 Warning: no grid points on interval from    -118.2500     33.5200 to    -118.2500     33.5225
 Warning: no grid points on interval from    -118.2500     33.5275 to    -118.2500     33.5300
 Warning: no grid points on interval from    -118.2500     33.5300 to    -118.2500     33.5325
 Warning: no grid points on interval from    -118.2500     33.5325 to    -118.2500     33.5350
 Warning: no grid points on interval from    -118.2500     33.5350 to    -118.2500     33.5375
 Warning: no grid points on interval from    -118.2500     33.5375 to    -118.2500     33.5400
 Warning: no grid points on interval from    -118.2500     33.5400 to    -118.2500     33.5425
 Warning: no grid points on interval from    -118.2500     33.5425 to    -118.2500     33.5450
 Warning: no grid points on interval from    -118.2500     33.5450 to    -118.2500     33.5475
 Warning: no grid points on interval from    -118.2500     33.5525 to    -118.2500     33.5550
 Warning: no grid points on interval from    -118.2500     33.5550 to    -118.2500     33.5575
 Warning: no grid points on interval from    -118.2500     33.5575 to    -118.2500     33.5600
 Warning: no grid points on interval from    -118.2500     33.5600 to    -118.2500     33.5625
 Warning: no grid points on interval from    -118.2500     33.5625 to    -118.2500     33.5650
 Warning: no grid points on interval from    -118.2500     33.5650 to    -118.2500     33.5675
 Warning: no grid points on interval from    -118.2500     33.5675 to    -118.2500     33.5700
 Warning: no grid points on interval from    -118.2500     33.5700 to    -118.2500     33.5725
 Warning: no grid points on interval from    -118.2500     33.5775 to    -118.2500     33.5800
 Warning: no grid points on interval from    -118.2500     33.5800 to    -118.2500     33.5825
 Warning: no grid points on interval from    -118.2500     33.5825 to    -118.2500     33.5850
 Warning: no grid points on interval from    -118.2500     33.5850 to    -118.2500     33.5875
 Warning: no grid points on interval from    -118.2500     33.5875 to    -118.2500     33.5900
 Warning: no grid points on interval from    -118.2500     33.5900 to    -118.2500     33.5925
 Warning: no grid points on interval from    -118.2500     33.5925 to    -118.2500     33.5950
 Warning: no grid points on interval from    -118.2500     33.5950 to    -118.2500     33.5975
 Warning: no grid points on interval from    -118.2500     33.6025 to    -118.2500     33.6050
 Warning: no grid points on interval from    -118.2500     33.6050 to    -118.2500     33.6075
 Warning: no grid points on interval from    -118.2500     33.6075 to    -118.2500     33.6100
 Warning: no grid points on interval from    -118.2500     33.6100 to    -118.2500     33.6125
 Warning: no grid points on interval from    -118.2500     33.6125 to    -118.2500     33.6150
 Warning: no grid points on interval from    -118.2500     33.6150 to    -118.2500     33.6175
 Warning: no grid points on interval from    -118.2500     33.6175 to    -118.2500     33.6200
 Warning: no grid points on interval from    -118.2500     33.6200 to    -118.2500     33.6225
 Warning: no grid points on interval from    -118.2500     33.6275 to    -118.2500     33.6300
 Warning: no grid points on interval from    -118.2500     33.6300 to    -118.2500     33.6325
 Warning: no grid points on interval from    -118.2500     33.6325 to    -118.2500     33.6350
 Warning: no grid points on interval from    -118.2500     33.6350 to    -118.2500     33.6375
 Warning: no grid points on interval from    -118.2500     33.6375 to    -118.2500     33.6400
 Warning: no grid points on interval from    -118.2500     33.6400 to    -118.2500     33.6425
 Warning: no grid points on interval from    -118.2500     33.6425 to    -118.2500     33.6450
 Warning: no grid points on interval from    -118.2500     33.6450 to    -118.2500     33.6475
 Warning: no grid points on interval from    -118.2500     33.6525 to    -118.2500     33.6550
 Warning: no grid points on interval from    -118.2500     33.6550 to    -118.2500     33.6575
 Warning: no grid points on interval from    -118.2500     33.6575 to    -118.2500     33.6600
 Warning: no grid points on interval from    -118.2500     33.6600 to    -118.2500     33.6625
 Warning: no grid points on interval from    -118.2500     33.6625 to    -118.2500     33.6650
 Warning: no grid points on interval from    -118.2500     33.6650 to    -118.2500     33.6675
 Warning: no grid points on interval from    -118.2500     33.6675 to    -118.2500     33.6700
 Warning: no grid points on interval from    -118.2500     33.6700 to    -118.2500     33.6725
 Warning: no grid points on interval from    -118.2500     33.6775 to    -118.2500     33.6800
 Warning: no grid points on interval from    -118.2500     33.6800 to    -118.2500     33.6825
 Warning: no grid points on interval from    -118.2500     33.6825 to    -118.2500     33.6850
 Warning: no grid points on interval from    -118.2500     33.6850 to    -118.2500     33.6875
 Warning: no grid points on interval from    -118.2500     33.6875 to    -118.2500     33.6900
 Warning: no grid points on interval from    -118.2500     33.6900 to    -118.2500     33.6925
 Warning: no grid points on interval from    -118.2500     33.6925 to    -118.2500     33.6950
 Warning: no grid points on interval from    -118.2500     33.6950 to    -118.2500     33.6975
 Warning: no grid points on interval from    -118.2500     33.7025 to    -118.2500     33.7050
 Warning: no grid points on interval from    -118.2500     33.7050 to    -118.2500     33.7075
 Warning: no grid points on interval from    -118.2500     33.7075 to    -118.2500     33.7100
 Warning: no grid points on interval from    -118.2500     33.7100 to    -118.2500     33.7125
 Warning: no grid points on interval from    -118.2500     33.7125 to    -118.2500     33.7150
 Warning: no grid points on interval from    -118.2500     33.7150 to    -118.2500     33.7175
 Warning: no grid points on interval from    -118.2500     33.7175 to    -118.2500     33.7200
 Warning: no grid points on interval from    -118.2500     33.7200 to    -118.2500     33.7225
 Warning: no grid points on interval from    -118.2500     33.7225 to    -118.2500     33.7250
 Warning: no grid points on interval from    -118.2500     33.7250 to    -118.2500     33.7275
 Warning: no grid points on interval from    -118.2500     33.7275 to    -118.2500     33.7300
 Warning: no grid points on interval from    -118.2500     33.7300 to    -118.2500     33.7325
 Warning: no grid points on interval from    -118.2500     33.7325 to    -118.2500     33.7350
 Warning: no grid points on interval from    -118.2500     33.7350 to    -118.2500     33.7375
 Warning: no grid points on interval from    -118.2500     33.7375 to    -118.2500     33.7400
 Warning: no grid points on interval from    -118.2500     33.7400 to    -118.2500     33.7425
 Warning: no grid points on interval from    -118.2500     33.7425 to    -118.2500     33.7450
 Warning: no grid points on interval from    -118.2500     33.7450 to    -118.2500     33.7475
 Warning: no grid points on interval from    -118.2500     33.7475 to    -118.2500     33.7500
 Warning: no grid points on interval from    -118.2500     33.7500 to    -118.2500     33.7525
 Warning: no grid points on interval from    -118.2500     33.7525 to    -118.2500     33.7550
 Warning: no grid points on interval from    -118.2500     33.7550 to    -118.2500     33.7575
 Warning: no grid points on interval from    -118.2500     33.7575 to    -118.2500     33.7600
 Warning: no grid points on interval from    -118.2500     33.7600 to    -118.2500     33.7625
 Warning: no grid points on interval from    -118.2500     33.7625 to    -118.2500     33.7650
 Warning: no grid points on interval from    -118.2500     33.7650 to    -118.2500     33.7675
 Warning: no grid points on interval from    -118.2500     33.7675 to    -118.2500     33.7700
 Warning: no grid points on interval from    -118.2500     33.7700 to    -118.2500     33.7725
 Warning: no grid points on interval from    -118.2500     33.7725 to    -118.2500     33.7750
 Warning: no grid points on interval from    -118.2500     33.7750 to    -118.2500     33.7775
 Warning: no grid points on interval from    -118.2500     33.7775 to    -118.2500     33.7800
 Warning: no grid points on interval from    -118.2500     33.7800 to    -118.2500     33.7825
 Warning: no grid points on interval from    -118.2500     33.7825 to    -118.2500     33.7850
 Warning: no grid points on interval from    -118.2500     33.7850 to    -118.2500     33.7875
 Warning: no grid points on interval from    -118.2500     33.7875 to    -118.2500     33.7900
 Warning: no grid points on interval from    -118.2500     33.7900 to    -118.2500     33.7925
 Warning: no grid points on interval from    -118.2500     33.7925 to    -118.2500     33.7950
 Warning: no grid points on interval from    -118.2500     33.7950 to    -118.2500     33.7975
 Warning: no grid points on interval from    -118.2500     33.7975 to    -118.2500     33.8000
 Warning: no grid points on interval from    -118.2500     33.8000 to    -118.2500     33.8025
 Warning: no grid points on interval from    -118.2500     33.8025 to    -118.2500     33.8050
 Warning: no grid points on interval from    -118.2500     33.8050 to    -118.2500     33.8075
 Warning: no grid points on interval from    -118.2500     33.8075 to    -118.2500     33.8100
 Warning: no grid points on interval from    -118.2500     33.8100 to    -118.2500     33.8125
 Warning: no grid points on interval from    -118.2500     33.8125 to    -118.2500     33.8150
 Warning: no grid points on interval from    -118.2500     33.8150 to    -118.2500     33.8175
 Warning: no grid points on interval from    -118.2500     33.8175 to    -118.2500     33.8200
 Warning: no grid points on interval from    -118.2500     33.8200 to    -118.2500     33.8225
 Warning: no grid points on interval from    -118.2500     33.8225 to    -118.2500     33.8250
 Warning: no grid points on interval from    -118.2500     33.8250 to    -118.2500     33.8275
 Warning: no grid points on interval from    -118.2500     33.8275 to    -118.2500     33.8300
 Warning: no grid points on interval from    -118.2500     33.8300 to    -118.2500     33.8325
 Warning: no grid points on interval from    -118.2500     33.8325 to    -118.2500     33.8350
 Warning: no grid points on interval from    -118.2500     33.8350 to    -118.2500     33.8375
 Warning: no grid points on interval from    -118.2500     33.8375 to    -118.2500     33.8400
 Warning: no grid points on interval from    -118.2500     33.8400 to    -118.2500     33.8425
 Warning: no grid points on interval from    -118.2500     33.8425 to    -118.2500     33.8450
 Warning: no grid points on interval from    -118.2500     33.8450 to    -118.2500     33.8475
 Warning: no grid points on interval from    -118.2500     33.8475 to    -118.2500     33.8500
 Warning: no grid points on interval from    -118.2500     33.8500 to    -118.2500     33.8525
 Warning: no grid points on interval from    -118.2500     33.8525 to    -118.2500     33.8550
 Warning: no grid points on interval from    -118.2500     33.8550 to    -118.2500     33.8575
 Warning: no grid points on interval from    -118.2500     33.8575 to    -118.2500     33.8600
 Warning: no grid points on interval from    -118.2500     33.8600 to    -118.2500     33.8625
 Warning: no grid points on interval from    -118.2500     33.8625 to    -118.2500     33.8650
 Warning: no grid points on interval from    -118.2500     33.8650 to    -118.2500     33.8675
 Warning: no grid points on interval from    -118.2500     33.8675 to    -118.2500     33.8700
 Warning: no grid points on interval from    -118.2500     33.8700 to    -118.2500     33.8725
 Warning: no grid points on interval from    -118.2500     33.8725 to    -118.2500     33.8750
 Warning: no grid points on interval from    -118.2500     33.8750 to    -118.2500     33.8775
 Warning: no grid points on interval from    -118.2500     33.8775 to    -118.2500     33.8800
 Warning: no grid points on interval from    -118.2500     33.8800 to    -118.2500     33.8825
 Warning: no grid points on interval from    -118.2500     33.8825 to    -118.2500     33.8850
 Warning: no grid points on interval from    -118.2500     33.8850 to    -118.2500     33.8875
 Warning: no grid points on interval from    -118.2500     33.8875 to    -118.2500     33.8900
 Warning: no grid points on interval from    -118.2500     33.8900 to    -118.2500     33.8925
 Warning: no grid points on interval from    -118.2500     33.8925 to    -118.2500     33.8950
 Warning: no grid points on interval from    -118.2500     33.8950 to    -118.2500     33.8975
 Warning: no grid points on interval from    -118.2500     33.8975 to    -118.2500     33.9000
 Warning: no grid points on interval from    -118.2500     33.9000 to    -118.2500     33.9025
 Warning: no grid points on interval from    -118.2500     33.9025 to    -118.2500     33.9050
 Warning: no grid points on interval from    -118.2500     33.9050 to    -118.2500     33.9075
 Warning: no grid points on interval from    -118.2500     33.9075 to    -118.2500     33.9100
 Warning: no grid points on interval from    -118.2500     33.9100 to    -118.2500     33.9125
 Warning: no grid points on interval from    -118.2500     33.9125 to    -118.2500     33.9150
 Warning: no grid points on interval from    -118.2500     33.9150 to    -118.2500     33.9175
 Warning: no grid points on interval from    -118.2500     33.9175 to    -118.2500     33.9200
 Warning: no grid points on interval from    -118.2500     33.9200 to    -118.2500     33.9225
 Warning: no grid points on interval from    -118.2500     33.9225 to    -118.2500     33.9250
 Warning: no grid points on interval from    -118.2500     33.9250 to    -118.2500     33.9275
 Warning: no grid points on interval from    -118.2500     33.9275 to    -118.2500     33.9300
 Warning: no grid points on interval from    -118.2500     33.9300 to    -118.2500     33.9325
 Warning: no grid points on interval from    -118.2500     33.9325 to    -118.2500     33.9350
 Warning: no grid points on interval from    -118.2500     33.9350 to    -118.2500     33.9375
 Warning: no grid points on interval from    -118.2500     33.9375 to    -118.2500     33.9400
 Warning: no grid points on interval from    -118.2500     33.9400 to    -118.2500     33.9425
 Warning: no grid points on interval from    -118.2500     33.9425 to    -118.2500     33.9450
 Warning: no grid points on interval from    -118.2500     33.9450 to    -118.2500     33.9475
 Warning: no grid points on interval from    -118.2500     33.9475 to    -118.2500     33.9500
 Warning: no grid points on interval from    -118.2500     33.9500 to    -118.2500     33.9525
 Warning: no grid points on interval from    -118.2500     33.9525 to    -118.2500     33.9550
 Warning: no grid points on interval from    -118.2500     33.9550 to    -118.2500     33.9575
 Warning: no grid points on interval from    -118.2500     33.9575 to    -118.2500     33.9600
 Warning: no grid points on interval from    -118.2500     33.9600 to    -118.2500     33.9625
 Warning: no grid points on interval from    -118.2500     33.9625 to    -118.2500     33.9650
 Warning: no grid points on interval from    -118.2500     33.9650 to    -118.2500     33.9675
 Warning: no grid points on interval from    -118.2500     33.9675 to    -118.2500     33.9700
 Warning: no grid points on interval from    -118.2500     33.9700 to    -118.2500     33.9725
 Warning: no grid points on interval from    -118.2500     33.9725 to    -118.2500     33.9750
 Warning: no grid points on interval from    -118.2500     33.9750 to    -118.2500     33.9775
 Warning: no grid points on interval from    -118.2500     33.9775 to    -118.2500     33.9800
 Warning: no grid points on interval from    -118.2500     33.9800 to    -118.2500     33.9825
 Warning: no grid points on interval from    -118.2500     33.9825 to    -118.2500     33.9850
 Warning: no grid points on interval from    -118.2500     33.9850 to    -118.2500     33.9875
 Warning: no grid points on interval from    -118.2500     33.9875 to    -118.2500     33.9900
 Warning: no grid points on interval from    -118.2500     33.9900 to    -118.2500     33.9925
 Warning: no grid points on interval from    -118.2500     33.9925 to    -118.2500     33.9950
 Warning: no grid points on interval from    -118.2500     33.9950 to    -118.2500     33.9975
 Warning: no grid points on interval from    -118.2500     33.9975 to    -118.2500     34.0000
 Warning: no grid points on interval from    -118.2500     34.0000 to    -118.2500     34.0025
 Warning: no grid points on interval from    -118.2500     34.0025 to    -118.2500     34.0050
 Warning: no grid points on interval from    -118.2500     34.0050 to    -118.2500     34.0075
 Warning: no grid points on interval from    -118.2500     34.0075 to    -118.2500     34.0100
 Warning: no grid points on interval from    -118.2500     34.0100 to    -118.2500     34.0125
 Warning: no grid points on interval from    -118.2500     34.0125 to    -118.2500     34.0150
 Warning: no grid points on interval from    -118.2500     34.0150 to    -118.2500     34.0175
 Warning: no grid points on interval from    -118.2500     34.0175 to    -118.2500     34.0200
 Warning: no grid points on interval from    -118.2500     34.0200 to    -118.2500     34.0225
 Warning: no grid points on interval from    -118.2500     34.0225 to    -118.2500     34.0250
 Warning: no grid points on interval from    -118.2500     34.0250 to    -118.2500     34.0275
 Warning: no grid points on interval from    -118.2500     34.0275 to    -118.2500     34.0300
 Warning: no grid points on interval from    -118.2500     34.0300 to    -118.2500     34.0325
 Warning: no grid points on interval from    -118.2500     34.0325 to    -118.2500     34.0350
 Warning: no grid points on interval from    -118.2500     34.0350 to    -118.2500     34.0375
 Warning: no grid points on interval from    -118.2500     34.0375 to    -118.2500     34.0400
 Warning: no grid points on interval from    -118.2500     34.0400 to    -118.2500     34.0425
 Warning: no grid points on interval from    -118.2500     34.0425 to    -118.2500     34.0450
 Warning: no grid points on interval from    -118.2500     34.0450 to    -118.2500     34.0475
 Warning: no grid points on interval from    -118.2500     34.0475 to    -118.2500     34.0500
 Warning: no grid points on interval from    -118.2500     34.0500 to    -118.2500     34.0525
 Warning: no grid points on interval from    -118.2500     34.0525 to    -118.2500     34.0550
 Warning: no grid points on interval from    -118.2500     34.0550 to    -118.2500     34.0575
 Warning: no grid points on interval from    -118.2500     34.0575 to    -118.2500     34.0600
 Warning: no grid points on interval from    -118.2500     34.0600 to    -118.2500     34.0625
 Warning: no grid points on interval from    -118.2500     34.0625 to    -118.2500     34.0650
 Warning: no grid points on interval from    -118.2500     34.0650 to    -118.2500     34.0675
 Warning: no grid points on interval from    -118.2500     34.0675 to    -118.2500     34.0700
 Warning: no grid points on interval from    -118.2500     34.0700 to    -118.2500     34.0725
 Warning: no grid points on interval from    -118.2500     34.0725 to    -118.2500     34.0750
 Warning: no grid points on interval from    -118.2500     34.0750 to    -118.2500     34.0775
 Warning: no grid points on interval from    -118.2500     34.0775 to    -118.2500     34.0800
 Warning: no grid points on interval from    -118.2500     34.0800 to    -118.2500     34.0825
 Warning: no grid points on interval from    -118.2500     34.0825 to    -118.2500     34.0850
 Warning: no grid points on interval from    -118.2500     34.0850 to    -118.2500     34.0875
 Warning: no grid points on interval from    -118.2500     34.0875 to    -118.2500     34.0900
 Warning: no grid points on interval from    -118.2500     34.0900 to    -118.2500     34.0925
 Warning: no grid points on interval from    -118.2500     34.0925 to    -118.2500     34.0950
 Warning: no grid points on interval from    -118.2500     34.0950 to    -118.2500     34.0975
 Warning: no grid points on interval from    -118.2500     34.0975 to    -118.2500     34.1000
 Warning: no grid points on interval from    -118.2500     34.1000 to    -118.2500     34.1025
 Warning: no grid points on interval from    -118.2500     34.1025 to    -118.2500     34.1050
 Warning: no grid points on interval from    -118.2500     34.1050 to    -118.2500     34.1075
 Warning: no grid points on interval from    -118.2500     34.1075 to    -118.2500     34.1100
 Warning: no grid points on interval from    -118.2500     34.1100 to    -118.2500     34.1125
 Warning: no grid points on interval from    -118.2500     34.1125 to    -118.2500     34.1150
 Warning: no grid points on interval from    -118.2500     34.1150 to    -118.2500     34.1175
 Warning: no grid points on interval from    -118.2500     34.1175 to    -118.2500     34.1200
 Warning: no grid points on interval from    -118.2500     34.1200 to    -118.2500     34.1225
 Warning: no grid points on interval from    -118.2500     34.1225 to    -118.2500     34.1250
 Warning: no grid points on interval from    -118.2500     34.1250 to    -118.2500     34.1275
 Warning: no grid points on interval from    -118.2500     34.1275 to    -118.2500     34.1300
 Warning: no grid points on interval from    -118.2500     34.1300 to    -118.2500     34.1325
 Warning: no grid points on interval from    -118.2500     34.1325 to    -118.2500     34.1350
 Warning: no grid points on interval from    -118.2500     34.1350 to    -118.2500     34.1375
 Warning: no grid points on interval from    -118.2500     34.1375 to    -118.2500     34.1400
 Warning: no grid points on interval from    -118.2500     34.1400 to    -118.2500     34.1425
 Warning: no grid points on interval from    -118.2500     34.1425 to    -118.2500     34.1450
 Warning: no grid points on interval from    -118.2500     34.1450 to    -118.2500     34.1475
 Warning: no grid points on interval from    -118.2500     34.1475 to    -118.2500     34.1500
 Warning: no grid points on interval from    -118.2500     34.1500 to    -118.2500     34.1525
 Warning: no grid points on interval from    -118.2500     34.1525 to    -118.2500     34.1550
 Warning: no grid points on interval from    -118.2500     34.1550 to    -118.2500     34.1575
 Warning: no grid points on interval from    -118.2500     34.1575 to    -118.2500     34.1600
 Warning: no grid points on interval from    -118.2500     34.1600 to    -118.2500     34.1625
 Warning: no grid points on interval from    -118.2500     34.1625 to    -118.2500     34.1650
 Warning: no grid points on interval from    -118.2500     34.1650 to    -118.2500     34.1675
 Warning: no grid points on interval from    -118.2500     34.1675 to    -118.2500     34.1700
 Warning: no grid points on interval from    -118.2500     34.1700 to    -118.2500     34.1725
 Warning: no grid points on interval from    -118.2500     34.1725 to    -118.2500     34.1750
 Warning: no grid points on interval from    -118.2500     34.1750 to    -118.2500     34.1775
 Warning: no grid points on interval from    -118.2500     34.1775 to    -118.2500     34.1800
 Warning: no grid points on interval from    -118.2500     34.1800 to    -118.2500     34.1825
 Warning: no grid points on interval from    -118.2500     34.1825 to    -118.2500     34.1850
 Warning: no grid points on interval from    -118.2500     34.1850 to    -118.2500     34.1875
 Warning: no grid points on interval from    -118.2500     34.1875 to    -118.2500     34.1900
 Warning: no grid points on interval from    -118.2500     34.1900 to    -118.2500     34.1925
 Warning: no grid points on interval from    -118.2500     34.1925 to    -118.2500     34.1950
 Warning: no grid points on interval from    -118.2500     34.1950 to    -118.2500     34.1975
 Warning: no grid points on interval from    -118.2500     34.1975 to    -118.2500     34.2000
 Warning: no grid points on interval from    -118.2500     34.2000 to    -118.2500     34.2025
 Warning: no grid points on interval from    -118.2500     34.2025 to    -118.2500     34.2050
 Warning: no grid points on interval from    -118.2500     34.2050 to    -118.2500     34.2075
 Warning: no grid points on interval from    -118.2500     34.2075 to    -118.2500     34.2100
 Warning: no grid points on interval from    -118.2500     34.2100 to    -118.2500     34.2125
 Warning: no grid points on interval from    -118.2500     34.2125 to    -118.2500     34.2150
 Warning: no grid points on interval from    -118.2500     34.2150 to    -118.2500     34.2175
 Warning: no grid points on interval from    -118.2500     34.2175 to    -118.2500     34.2200
 Warning: no grid points on interval from    -118.2500     34.2200 to    -118.2500     34.2225
 Warning: no grid points on interval from    -118.2500     34.2225 to    -118.2500     34.2250
 Warning: no grid points on interval from    -118.2500     34.2250 to    -118.2500     34.2275
 Warning: no grid points on interval from    -118.2500     34.2275 to    -118.2500     34.2300
 Warning: no grid points on interval from    -118.2500     34.2300 to    -118.2500     34.2325
 Warning: no grid points on interval from    -118.2500     34.2325 to    -118.2500     34.2350
 Warning: no grid points on interval from    -118.2500     34.2350 to    -118.2500     34.2375
 Warning: no grid points on interval from    -118.2500     34.2375 to    -118.2500     34.2400
 Warning: no grid points on interval from    -118.2500     34.2400 to    -118.2500     34.2425
 Warning: no grid points on interval from    -118.2500     34.2425 to    -118.2500     34.2450
 Warning: no grid points on interval from    -118.2500     34.2450 to    -118.2500     34.2475
 Warning: no grid points on interval from    -118.2500     34.2475 to    -118.2500     34.2500
 Warning: no grid points on interval from    -118.2500     34.2500 to    -118.2525     34.2500
 Warning: no grid points on interval from    -118.2525     34.2500 to    -118.2550     34.2500
 Warning: no grid points on interval from    -118.2550     34.2500 to    -118.2575     34.2500
 Warning: no grid points on interval from    -118.2575     34.2500 to    -118.2600     34.2500
 Warning: no grid points on interval from    -118.2600     34.2500 to    -118.2625     34.2500
 Warning: no grid points on interval from    -118.2625     34.2500 to    -118.2650     34.2500
 Warning: no grid points on interval from    -118.2650     34.2500 to    -118.2675     34.2500
 Warning: no grid points on interval from    -118.2675     34.2500 to    -118.2700     34.2500
 Warning: no grid points on interval from    -118.2700     34.2500 to    -118.2725     34.2500
 Warning: no grid points on interval from    -118.2725     34.2500 to    -118.2750     34.2500
 Warning: no grid points on interval from    -118.2750     34.2500 to    -118.2775     34.2500
 Warning: no grid points on interval from    -118.2775     34.2500 to    -118.2800     34.2500
 Warning: no grid points on interval from    -118.2800     34.2500 to    -118.2825     34.2500
 Warning: no grid points on interval from    -118.2825     34.2500 to    -118.2850     34.2500
 Warning: no grid points on interval from    -118.2850     34.2500 to    -118.2875     34.2500
 Warning: no grid points on interval from    -118.2875     34.2500 to    -118.2900     34.2500
 Warning: no grid points on interval from    -118.2900     34.2500 to    -118.2925     34.2500
 Warning: no grid points on interval from    -118.2925     34.2500 to    -118.2950     34.2500
 Warning: no grid points on interval from    -118.2950     34.2500 to    -118.2975     34.2500
 Warning: no grid points on interval from    -118.2975     34.2500 to    -118.3000     34.2500
 Warning: no grid points on interval from    -118.3000     34.2500 to    -118.3025     34.2500
 Warning: no grid points on interval from    -118.3025     34.2500 to    -118.3050     34.2500
 Warning: no grid points on interval from    -118.3050     34.2500 to    -118.3075     34.2500
 Warning: no grid points on interval from    -118.3075     34.2500 to    -118.3100     34.2500
 Warning: no grid points on interval from    -118.3100     34.2500 to    -118.3125     34.2500
 Warning: no grid points on interval from    -118.3125     34.2500 to    -118.3150     34.2500
 Warning: no grid points on interval from    -118.3150     34.2500 to    -118.3175     34.2500
 Warning: no grid points on interval from    -118.3175     34.2500 to    -118.3200     34.2500
 Warning: no grid points on interval from    -118.3200     34.2500 to    -118.3225     34.2500
 Warning: no grid points on interval from    -118.3225     34.2500 to    -118.3250     34.2500
 Warning: no grid points on interval from    -118.3250     34.2500 to    -118.3275     34.2500
 Warning: no grid points on interval from    -118.3275     34.2500 to    -118.3300     34.2500
 Warning: no grid points on interval from    -118.3300     34.2500 to    -118.3325     34.2500
 Warning: no grid points on interval from    -118.3325     34.2500 to    -118.3350     34.2500
 Warning: no grid points on interval from    -118.3350     34.2500 to    -118.3375     34.2500
 Warning: no grid points on interval from    -118.3375     34.2500 to    -118.3400     34.2500
 Warning: no grid points on interval from    -118.3400     34.2500 to    -118.3425     34.2500
 Warning: no grid points on interval from    -118.3425     34.2500 to    -118.3450     34.2500
 Warning: no grid points on interval from    -118.3450     34.2500 to    -118.3475     34.2500
 Warning: no grid points on interval from    -118.3475     34.2500 to    -118.3500     34.2500
 Warning: no grid points on interval from    -118.3500     34.2500 to    -118.3525     34.2500
 Warning: no grid points on interval from    -118.3525     34.2500 to    -118.3550     34.2500
 Warning: no grid points on interval from    -118.3550     34.2500 to    -118.3575     34.2500
 Warning: no grid points on interval from    -118.3575     34.2500 to    -118.3600     34.2500
 Warning: no grid points on interval from    -118.3600     34.2500 to    -118.3625     34.2500
 Warning: no grid points on interval from    -118.3625     34.2500 to    -118.3650     34.2500
 Warning: no grid points on interval from    -118.3650     34.2500 to    -118.3675     34.2500
 Warning: no grid points on interval from    -118.3675     34.2500 to    -118.3700     34.2500
 Warning: no grid points on interval from    -118.3700     34.2500 to    -118.3725     34.2500
 Warning: no grid points on interval from    -118.3725     34.2500 to    -118.3750     34.2500
 Warning: no grid points on interval from    -118.3750     34.2500 to    -118.3775     34.2500
 Warning: no grid points on interval from    -118.3775     34.2500 to    -118.3800     34.2500
 Warning: no grid points on interval from    -118.3800     34.2500 to    -118.3825     34.2500
 Warning: no grid points on interval from    -118.3825     34.2500 to    -118.3850     34.2500
 Warning: no grid points on interval from    -118.3850     34.2500 to    -118.3875     34.2500
 Warning: no grid points on interval from    -118.3875     34.2500 to    -118.3900     34.2500
 Warning: no grid points on interval from    -118.3900     34.2500 to    -118.3925     34.2500
 Warning: no grid points on interval from    -118.3925     34.2500 to    -118.3950     34.2500
 Warning: no grid points on interval from    -118.3950     34.2500 to    -118.3975     34.2500
 Warning: no grid points on interval from    -118.3975     34.2500 to    -118.4000     34.2500
 Warning: no grid points on interval from    -118.4000     34.2500 to    -118.4025     34.2500
 Warning: no grid points on interval from    -118.4025     34.2500 to    -118.4050     34.2500
 Warning: no grid points on interval from    -118.4050     34.2500 to    -118.4075     34.2500
 Warning: no grid points on interval from    -118.4075     34.2500 to    -118.4100     34.2500
 Warning: no grid points on interval from    -118.4100     34.2500 to    -118.4125     34.2500
 Warning: no grid points on interval from    -118.4125     34.2500 to    -118.4150     34.2500
 Warning: no grid points on interval from    -118.4150     34.2500 to    -118.4175     34.2500
 Warning: no grid points on interval from    -118.4175     34.2500 to    -118.4200     34.2500
 Warning: no grid points on interval from    -118.4200     34.2500 to    -118.4225     34.2500
 Warning: no grid points on interval from    -118.4225     34.2500 to    -118.4250     34.2500
 Warning: no grid points on interval from    -118.4250     34.2500 to    -118.4275     34.2500
 Warning: no grid points on interval from    -118.4275     34.2500 to    -118.4300     34.2500
 Warning: no grid points on interval from    -118.4300     34.2500 to    -118.4325     34.2500
 Warning: no grid points on interval from    -118.4325     34.2500 to    -118.4350     34.2500
 Warning: no grid points on interval from    -118.4350     34.2500 to    -118.4375     34.2500
 Warning: no grid points on interval from    -118.4375     34.2500 to    -118.4400     34.2500
 Warning: no grid points on interval from    -118.4400     34.2500 to    -118.4425     34.2500
 Warning: no grid points on interval from    -118.4425     34.2500 to    -118.4450     34.2500
 Warning: no grid points on interval from    -118.4450     34.2500 to    -118.4475     34.2500
 Warning: no grid points on interval from    -118.4475     34.2500 to    -118.4500     34.2500
 Warning: no grid points on interval from    -118.4500     34.2500 to    -118.4525     34.2500
 Warning: no grid points on interval from    -118.4525     34.2500 to    -118.4550     34.2500
 Warning: no grid points on interval from    -118.4550     34.2500 to    -118.4575     34.2500
 Warning: no grid points on interval from    -118.4575     34.2500 to    -118.4600     34.2500
 Warning: no grid points on interval from    -118.4600     34.2500 to    -118.4625     34.2500
 Warning: no grid points on interval from    -118.4625     34.2500 to    -118.4650     34.2500
 Warning: no grid points on interval from    -118.4650     34.2500 to    -118.4675     34.2500
 Warning: no grid points on interval from    -118.4675     34.2500 to    -118.4700     34.2500
 Warning: no grid points on interval from    -118.4700     34.2500 to    -118.4725     34.2500
 Warning: no grid points on interval from    -118.4725     34.2500 to    -118.4750     34.2500
 Warning: no grid points on interval from    -118.4750     34.2500 to    -118.4775     34.2500
 Warning: no grid points on interval from    -118.4775     34.2500 to    -118.4800     34.2500
 Warning: no grid points on interval from    -118.4800     34.2500 to    -118.4825     34.2500
 Warning: no grid points on interval from    -118.4825     34.2500 to    -118.4850     34.2500
 Warning: no grid points on interval from    -118.4850     34.2500 to    -118.4875     34.2500
 Warning: no grid points on interval from    -118.4875     34.2500 to    -118.4900     34.2500
 Warning: no grid points on interval from    -118.4900     34.2500 to    -118.4925     34.2500
 Warning: no grid points on interval from    -118.4925     34.2500 to    -118.4950     34.2500
 Warning: no grid points on interval from    -118.4950     34.2500 to    -118.4975     34.2500
 Warning: no grid points on interval from    -118.4975     34.2500 to    -118.5000     34.2500
 Warning: no grid points on interval from    -118.5000     34.2500 to    -118.5025     34.2500
 Warning: no grid points on interval from    -118.5025     34.2500 to    -118.5050     34.2500
 Warning: no grid points on interval from    -118.5050     34.2500 to    -118.5075     34.2500
 Warning: no grid points on interval from    -118.5075     34.2500 to    -118.5100     34.2500
 Warning: no grid points on interval from    -118.5100     34.2500 to    -118.5125     34.2500
 Warning: no grid points on interval from    -118.5125     34.2500 to    -118.5150     34.2500
 Warning: no grid points on interval from    -118.5150     34.2500 to    -118.5175     34.2500
 Warning: no grid points on interval from    -118.5175     34.2500 to    -118.5200     34.2500
 Warning: no grid points on interval from    -118.5200     34.2500 to    -118.5225     34.2500
 Warning: no grid points on interval from    -118.5225     34.2500 to    -118.5250     34.2500
 Warning: no grid points on interval from    -118.5250     34.2500 to    -118.5275     34.2500
 Warning: no grid points on interval from    -118.5275     34.2500 to    -118.5300     34.2500
 Warning: no grid points on interval from    -118.5300     34.2500 to    -118.5325     34.2500
 Warning: no grid points on interval from    -118.5325     34.2500 to    -118.5350     34.2500
 Warning: no grid points on interval from    -118.5350     34.2500 to    -118.5375     34.2500
 Warning: no grid points on interval from    -118.5375     34.2500 to    -118.5400     34.2500
 Warning: no grid points on interval from    -118.5400     34.2500 to    -118.5425     34.2500
 Warning: no grid points on interval from    -118.5425     34.2500 to    -118.5450     34.2500
 Warning: no grid points on interval from    -118.5450     34.2500 to    -118.5475     34.2500
 Warning: no grid points on interval from    -118.5475     34.2500 to    -118.5500     34.2500
 Warning: no grid points on interval from    -118.5500     34.2500 to    -118.5525     34.2500
 Warning: no grid points on interval from    -118.5525     34.2500 to    -118.5550     34.2500
 Warning: no grid points on interval from    -118.5550     34.2500 to    -118.5575     34.2500
 Warning: no grid points on interval from    -118.5575     34.2500 to    -118.5600     34.2500
 Warning: no grid points on interval from    -118.5600     34.2500 to    -118.5625     34.2500
 Warning: no grid points on interval from    -118.5625     34.2500 to    -118.5650     34.2500
 Warning: no grid points on interval from    -118.5650     34.2500 to    -118.5675     34.2500
 Warning: no grid points on interval from    -118.5675     34.2500 to    -118.5700     34.2500
 Warning: no grid points on interval from    -118.5700     34.2500 to    -118.5725     34.2500
 Warning: no grid points on interval from    -118.5725     34.2500 to    -118.5750     34.2500
 Warning: no grid points on interval from    -118.5750     34.2500 to    -118.5775     34.2500
 Warning: no grid points on interval from    -118.5775     34.2500 to    -118.5800     34.2500
 Warning: no grid points on interval from    -118.5800     34.2500 to    -118.5825     34.2500
 Warning: no grid points on interval from    -118.5825     34.2500 to    -118.5850     34.2500
 Warning: no grid points on interval from    -118.5850     34.2500 to    -118.5875     34.2500
 Warning: no grid points on interval from    -118.5875     34.2500 to    -118.5900     34.2500
 Warning: no grid points on interval from    -118.5900     34.2500 to    -118.5925     34.2500
 Warning: no grid points on interval from    -118.5925     34.2500 to    -118.5950     34.2500
 Warning: no grid points on interval from    -118.5950     34.2500 to    -118.5975     34.2500
 Warning: no grid points on interval from    -118.5975     34.2500 to    -118.6000     34.2500
 Warning: no grid points on interval from    -118.6000     34.2500 to    -118.6025     34.2500
 Warning: no grid points on interval from    -118.6025     34.2500 to    -118.6050     34.2500
 Warning: no grid points on interval from    -118.6050     34.2500 to    -118.6075     34.2500
 Warning: no grid points on interval from    -118.6075     34.2500 to    -118.6100     34.2500
 Warning: no grid points on interval from    -118.6100     34.2500 to    -118.6125     34.2500
 Warning: no grid points on interval from    -118.6125     34.2500 to    -118.6150     34.2500
 Warning: no grid points on interval from    -118.6150     34.2500 to    -118.6175     34.2500
 Warning: no grid points on interval from    -118.6175     34.2500 to    -118.6200     34.2500
 Warning: no grid points on interval from    -118.6200     34.2500 to    -118.6225     34.2500
 Warning: no grid points on interval from    -118.6225     34.2500 to    -118.6250     34.2500
 Warning: no grid points on interval from    -118.6250     34.2500 to    -118.6275     34.2500
 Warning: no grid points on interval from    -118.6275     34.2500 to    -118.6300     34.2500
 Warning: no grid points on interval from    -118.6300     34.2500 to    -118.6325     34.2500
 Warning: no grid points on interval from    -118.6325     34.2500 to    -118.6350     34.2500
 Warning: no grid points on interval from    -118.6350     34.2500 to    -118.6375     34.2500
 Warning: no grid points on interval from    -118.6375     34.2500 to    -118.6400     34.2500
 Warning: no grid points on interval from    -118.6400     34.2500 to    -118.6425     34.2500
 Warning: no grid points on interval from    -118.6425     34.2500 to    -118.6450     34.2500
 Warning: no grid points on interval from    -118.6450     34.2500 to    -118.6475     34.2500
 Warning: no grid points on interval from    -118.6475     34.2500 to    -118.6500     34.2500
 Warning: no grid points on interval from    -118.6500     34.2500 to    -118.6525     34.2500
 Warning: no grid points on interval from    -118.6525     34.2500 to    -118.6550     34.2500
 Warning: no grid points on interval from    -118.6550     34.2500 to    -118.6575     34.2500
 Warning: no grid points on interval from    -118.6575     34.2500 to    -118.6600     34.2500
 Warning: no grid points on interval from    -118.6600     34.2500 to    -118.6625     34.2500
 Warning: no grid points on interval from    -118.6625     34.2500 to    -118.6650     34.2500
 Warning: no grid points on interval from    -118.6650     34.2500 to    -118.6675     34.2500
 Warning: no grid points on interval from    -118.6675     34.2500 to    -118.6700     34.2500
 Warning: no grid points on interval from    -118.6700     34.2500 to    -118.6725     34.2500
 Warning: no grid points on interval from    -118.6725     34.2500 to    -118.6750     34.2500
 Warning: no grid points on interval from    -118.6750     34.2500 to    -118.6775     34.2500
 Warning: no grid points on interval from    -118.6775     34.2500 to    -118.6800     34.2500
 Warning: no grid points on interval from    -118.6800     34.2500 to    -118.6825     34.2500
 Warning: no grid points on interval from    -118.6825     34.2500 to    -118.6850     34.2500
 Warning: no grid points on interval from    -118.6850     34.2500 to    -118.6875     34.2500
 Warning: no grid points on interval from    -118.6875     34.2500 to    -118.6900     34.2500
 Warning: no grid points on interval from    -118.6900     34.2500 to    -118.6925     34.2500
 Warning: no grid points on interval from    -118.6925     34.2500 to    -118.6950     34.2500
 Warning: no grid points on interval from    -118.6950     34.2500 to    -118.6975     34.2500
 Warning: no grid points on interval from    -118.6975     34.2500 to    -118.7000     34.2500
 Warning: no grid points on interval from    -118.7000     34.2500 to    -118.7025     34.2500
 Warning: no grid points on interval from    -118.7025     34.2500 to    -118.7050     34.2500
 Warning: no grid points on interval from    -118.7050     34.2500 to    -118.7075     34.2500
 Warning: no grid points on interval from    -118.7075     34.2500 to    -118.7100     34.2500
 Warning: no grid points on interval from    -118.7100     34.2500 to    -118.7125     34.2500
 Warning: no grid points on interval from    -118.7125     34.2500 to    -118.7150     34.2500
 Warning: no grid points on interval from    -118.7150     34.2500 to    -118.7175     34.2500
 Warning: no grid points on interval from    -118.7175     34.2500 to    -118.7200     34.2500
 Warning: no grid points on interval from    -118.7200     34.2500 to    -118.7225     34.2500
 Warning: no grid points on interval from    -118.7225     34.2500 to    -118.7250     34.2500
 Warning: no grid points on interval from    -118.7250     34.2500 to    -118.7275     34.2500
 Warning: no grid points on interval from    -118.7275     34.2500 to    -118.7300     34.2500
 Warning: no grid points on interval from    -118.7300     34.2500 to    -118.7325     34.2500
 Warning: no grid points on interval from    -118.7325     34.2500 to    -118.7350     34.2500
 Warning: no grid points on interval from    -118.7350     34.2500 to    -118.7375     34.2500
 Warning: no grid points on interval from    -118.7375     34.2500 to    -118.7400     34.2500
 Warning: no grid points on interval from    -118.7400     34.2500 to    -118.7425     34.2500
 Warning: no grid points on interval from    -118.7425     34.2500 to    -118.7450     34.2500
 Warning: no grid points on interval from    -118.7450     34.2500 to    -118.7475     34.2500
 Warning: no grid points on interval from    -118.7475     34.2500 to    -118.7500     34.2500
 Warning: no grid points on interval from    -118.7500     34.2500 to    -118.7525     34.2500
 Warning: no grid points on interval from    -118.7525     34.2500 to    -118.7550     34.2500
 Warning: no grid points on interval from    -118.7550     34.2500 to    -118.7575     34.2500
 Warning: no grid points on interval from    -118.7575     34.2500 to    -118.7600     34.2500
 Warning: no grid points on interval from    -118.7600     34.2500 to    -118.7625     34.2500
 Warning: no grid points on interval from    -118.7625     34.2500 to    -118.7650     34.2500
 Warning: no grid points on interval from    -118.7650     34.2500 to    -118.7675     34.2500
 Warning: no grid points on interval from    -118.7675     34.2500 to    -118.7700     34.2500
 Warning: no grid points on interval from    -118.7700     34.2500 to    -118.7725     34.2500
 Warning: no grid points on interval from    -118.7725     34.2500 to    -118.7750     34.2500
 Warning: no grid points on interval from    -118.7750     34.2500 to    -118.7775     34.2500
 Warning: no grid points on interval from    -118.7775     34.2500 to    -118.7800     34.2500
 Warning: no grid points on interval from    -118.7800     34.2500 to    -118.7825     34.2500
 Warning: no grid points on interval from    -118.7825     34.2500 to    -118.7850     34.2500
 Warning: no grid points on interval from    -118.7850     34.2500 to    -118.7875     34.2500
 Warning: no grid points on interval from    -118.7875     34.2500 to    -118.7900     34.2500
 Warning: no grid points on interval from    -118.7900     34.2500 to    -118.7925     34.2500
 Warning: no grid points on interval from    -118.7925     34.2500 to    -118.7950     34.2500
 Warning: no grid points on interval from    -118.7950     34.2500 to    -118.7975     34.2500
 Warning: no grid points on interval from    -118.7975     34.2500 to    -118.8000     34.2500
 Warning: no grid points on interval from    -118.8000     34.2500 to    -118.8025     34.2500
[...]
 Warning: no grid points on interval from    -119.2500     33.9825 to    -119.2500     33.9800
 Warning: no grid points on interval from    -119.2500     33.9800 to    -119.2500     33.9775
 Warning: no grid points on interval from    -119.2500     33.9725 to    -119.2500     33.9700
 Warning: no grid points on interval from    -119.2500     33.9700 to    -119.2500     33.9675
 Warning: no grid points on interval from    -119.2500     33.9675 to    -119.2500     33.9650
 Warning: no grid points on interval from    -119.2500     33.9650 to    -119.2500     33.9625
 Warning: no grid points on interval from    -119.2500     33.9625 to    -119.2500     33.9600
 Warning: no grid points on interval from    -119.2500     33.9600 to    -119.2500     33.9575
 Warning: no grid points on interval from    -119.2500     33.9575 to    -119.2500     33.9550
 Warning: no grid points on interval from    -119.2500     33.9550 to    -119.2500     33.9525
 Warning: no grid points on interval from    -119.2500     33.9475 to    -119.2500     33.9450
 Warning: no grid points on interval from    -119.2500     33.9450 to    -119.2500     33.9425
 Warning: no grid points on interval from    -119.2500     33.9425 to    -119.2500     33.9400
 Warning: no grid points on interval from    -119.2500     33.9400 to    -119.2500     33.9375
 Warning: no grid points on interval from    -119.2500     33.9375 to    -119.2500     33.9350
 Warning: no grid points on interval from    -119.2500     33.9350 to    -119.2500     33.9325
 Warning: no grid points on interval from    -119.2500     33.9325 to    -119.2500     33.9300
 Warning: no grid points on interval from    -119.2500     33.9300 to    -119.2500     33.9275
 Warning: no grid points on interval from    -119.2500     33.9225 to    -119.2500     33.9200
 Warning: no grid points on interval from    -119.2500     33.9200 to    -119.2500     33.9175
 Warning: no grid points on interval from    -119.2500     33.9175 to    -119.2500     33.9150
 Warning: no grid points on interval from    -119.2500     33.9150 to    -119.2500     33.9125
 Warning: no grid points on interval from    -119.2500     33.9125 to    -119.2500     33.9100
 Warning: no grid points on interval from    -119.2500     33.9100 to    -119.2500     33.9075
 Warning: no grid points on interval from    -119.2500     33.9075 to    -119.2500     33.9050
 Warning: no grid points on interval from    -119.2500     33.9050 to    -119.2500     33.9025
 Warning: no grid points on interval from    -119.2500     33.8975 to    -119.2500     33.8950
 Warning: no grid points on interval from    -119.2500     33.8950 to    -119.2500     33.8925
 Warning: no grid points on interval from    -119.2500     33.8925 to    -119.2500     33.8900
 Warning: no grid points on interval from    -119.2500     33.8900 to    -119.2500     33.8875
 Warning: no grid points on interval from    -119.2500     33.8875 to    -119.2500     33.8850
 Warning: no grid points on interval from    -119.2500     33.8850 to    -119.2500     33.8825
 Warning: no grid points on interval from    -119.2500     33.8825 to    -119.2500     33.8800
 Warning: no grid points on interval from    -119.2500     33.8800 to    -119.2500     33.8775
 Warning: no grid points on interval from    -119.2500     33.8725 to    -119.2500     33.8700
 Warning: no grid points on interval from    -119.2500     33.8700 to    -119.2500     33.8675
 Warning: no grid points on interval from    -119.2500     33.8675 to    -119.2500     33.8650
 Warning: no grid points on interval from    -119.2500     33.8650 to    -119.2500     33.8625
 Warning: no grid points on interval from    -119.2500     33.8625 to    -119.2500     33.8600
 Warning: no grid points on interval from    -119.2500     33.8600 to    -119.2500     33.8575
 Warning: no grid points on interval from    -119.2500     33.8575 to    -119.2500     33.8550
 Warning: no grid points on interval from    -119.2500     33.8550 to    -119.2500     33.8525
 Warning: no grid points on interval from    -119.2500     33.8475 to    -119.2500     33.8450
 Warning: no grid points on interval from    -119.2500     33.8450 to    -119.2500     33.8425
 Warning: no grid points on interval from    -119.2500     33.8425 to    -119.2500     33.8400
 Warning: no grid points on interval from    -119.2500     33.8400 to    -119.2500     33.8375
 Warning: no grid points on interval from    -119.2500     33.8375 to    -119.2500     33.8350
 Warning: no grid points on interval from    -119.2500     33.8350 to    -119.2500     33.8325
 Warning: no grid points on interval from    -119.2500     33.8325 to    -119.2500     33.8300
 Warning: no grid points on interval from    -119.2500     33.8300 to    -119.2500     33.8275
 Warning: no grid points on interval from    -119.2500     33.8225 to    -119.2500     33.8200
 Warning: no grid points on interval from    -119.2500     33.8200 to    -119.2500     33.8175
 Warning: no grid points on interval from    -119.2500     33.8175 to    -119.2500     33.8150
 Warning: no grid points on interval from    -119.2500     33.8150 to    -119.2500     33.8125
 Warning: no grid points on interval from    -119.2500     33.8125 to    -119.2500     33.8100
 Warning: no grid points on interval from    -119.2500     33.8100 to    -119.2500     33.8075
 Warning: no grid points on interval from    -119.2500     33.8075 to    -119.2500     33.8050
 Warning: no grid points on interval from    -119.2500     33.8050 to    -119.2500     33.8025
 Warning: no grid points on interval from    -119.2500     33.7975 to    -119.2500     33.7950
 Warning: no grid points on interval from    -119.2500     33.7950 to    -119.2500     33.7925
 Warning: no grid points on interval from    -119.2500     33.7925 to    -119.2500     33.7900
 Warning: no grid points on interval from    -119.2500     33.7900 to    -119.2500     33.7875
 Warning: no grid points on interval from    -119.2500     33.7875 to    -119.2500     33.7850
 Warning: no grid points on interval from    -119.2500     33.7850 to    -119.2500     33.7825
 Warning: no grid points on interval from    -119.2500     33.7825 to    -119.2500     33.7800
 Warning: no grid points on interval from    -119.2500     33.7800 to    -119.2500     33.7775
 Warning: no grid points on interval from    -119.2500     33.7725 to    -119.2500     33.7700
 Warning: no grid points on interval from    -119.2500     33.7700 to    -119.2500     33.7675
 Warning: no grid points on interval from    -119.2500     33.7675 to    -119.2500     33.7650
 Warning: no grid points on interval from    -119.2500     33.7650 to    -119.2500     33.7625
 Warning: no grid points on interval from    -119.2500     33.7625 to    -119.2500     33.7600
 Warning: no grid points on interval from    -119.2500     33.7600 to    -119.2500     33.7575
 Warning: no grid points on interval from    -119.2500     33.7575 to    -119.2500     33.7550
 Warning: no grid points on interval from    -119.2500     33.7550 to    -119.2500     33.7525
 Warning: no grid points on interval from    -119.2500     33.7475 to    -119.2500     33.7450
 Warning: no grid points on interval from    -119.2500     33.7450 to    -119.2500     33.7425
 Warning: no grid points on interval from    -119.2500     33.7425 to    -119.2500     33.7400
 Warning: no grid points on interval from    -119.2500     33.7400 to    -119.2500     33.7375
 Warning: no grid points on interval from    -119.2500     33.7375 to    -119.2500     33.7350
 Warning: no grid points on interval from    -119.2500     33.7350 to    -119.2500     33.7325
 Warning: no grid points on interval from    -119.2500     33.7325 to    -119.2500     33.7300
 Warning: no grid points on interval from    -119.2500     33.7300 to    -119.2500     33.7275
 Warning: no grid points on interval from    -119.2500     33.7225 to    -119.2500     33.7200
 Warning: no grid points on interval from    -119.2500     33.7200 to    -119.2500     33.7175
 Warning: no grid points on interval from    -119.2500     33.7175 to    -119.2500     33.7150
 Warning: no grid points on interval from    -119.2500     33.7150 to    -119.2500     33.7125
 Warning: no grid points on interval from    -119.2500     33.7125 to    -119.2500     33.7100
 Warning: no grid points on interval from    -119.2500     33.7100 to    -119.2500     33.7075
 Warning: no grid points on interval from    -119.2500     33.7075 to    -119.2500     33.7050
 Warning: no grid points on interval from    -119.2500     33.7050 to    -119.2500     33.7025
 Warning: no grid points on interval from    -119.2500     33.6975 to    -119.2500     33.6950
 Warning: no grid points on interval from    -119.2500     33.6950 to    -119.2500     33.6925
 Warning: no grid points on interval from    -119.2500     33.6925 to    -119.2500     33.6900
 Warning: no grid points on interval from    -119.2500     33.6900 to    -119.2500     33.6875
 Warning: no grid points on interval from    -119.2500     33.6875 to    -119.2500     33.6850
 Warning: no grid points on interval from    -119.2500     33.6850 to    -119.2500     33.6825
 Warning: no grid points on interval from    -119.2500     33.6825 to    -119.2500     33.6800
 Warning: no grid points on interval from    -119.2500     33.6800 to    -119.2500     33.6775
 Warning: no grid points on interval from    -119.2500     33.6725 to    -119.2500     33.6700
 Warning: no grid points on interval from    -119.2500     33.6700 to    -119.2500     33.6675
 Warning: no grid points on interval from    -119.2500     33.6675 to    -119.2500     33.6650
 Warning: no grid points on interval from    -119.2500     33.6650 to    -119.2500     33.6625
 Warning: no grid points on interval from    -119.2500     33.6625 to    -119.2500     33.6600
 Warning: no grid points on interval from    -119.2500     33.6600 to    -119.2500     33.6575
 Warning: no grid points on interval from    -119.2500     33.6575 to    -119.2500     33.6550
 Warning: no grid points on interval from    -119.2500     33.6550 to    -119.2500     33.6525
 Warning: no grid points on interval from    -119.2500     33.6475 to    -119.2500     33.6450
 Warning: no grid points on interval from    -119.2500     33.6450 to    -119.2500     33.6425
 Warning: no grid points on interval from    -119.2500     33.6425 to    -119.2500     33.6400
 Warning: no grid points on interval from    -119.2500     33.6400 to    -119.2500     33.6375
 Warning: no grid points on interval from    -119.2500     33.6375 to    -119.2500     33.6350
 Warning: no grid points on interval from    -119.2500     33.6350 to    -119.2500     33.6325
 Warning: no grid points on interval from    -119.2500     33.6325 to    -119.2500     33.6300
 Warning: no grid points on interval from    -119.2500     33.6300 to    -119.2500     33.6275
 Warning: no grid points on interval from    -119.2500     33.6225 to    -119.2500     33.6200
 Warning: no grid points on interval from    -119.2500     33.6200 to    -119.2500     33.6175
 Warning: no grid points on interval from    -119.2500     33.6175 to    -119.2500     33.6150
 Warning: no grid points on interval from    -119.2500     33.6150 to    -119.2500     33.6125
 Warning: no grid points on interval from    -119.2500     33.6125 to    -119.2500     33.6100
 Warning: no grid points on interval from    -119.2500     33.6100 to    -119.2500     33.6075
 Warning: no grid points on interval from    -119.2500     33.6075 to    -119.2500     33.6050
 Warning: no grid points on interval from    -119.2500     33.6050 to    -119.2500     33.6025
 Warning: no grid points on interval from    -119.2500     33.5975 to    -119.2500     33.5950
 Warning: no grid points on interval from    -119.2500     33.5950 to    -119.2500     33.5925
 Warning: no grid points on interval from    -119.2500     33.5925 to    -119.2500     33.5900
 Warning: no grid points on interval from    -119.2500     33.5900 to    -119.2500     33.5875
 Warning: no grid points on interval from    -119.2500     33.5875 to    -119.2500     33.5850
 Warning: no grid points on interval from    -119.2500     33.5850 to    -119.2500     33.5825
 Warning: no grid points on interval from    -119.2500     33.5825 to    -119.2500     33.5800
 Warning: no grid points on interval from    -119.2500     33.5800 to    -119.2500     33.5775
 Warning: no grid points on interval from    -119.2500     33.5725 to    -119.2500     33.5700
 Warning: no grid points on interval from    -119.2500     33.5700 to    -119.2500     33.5675
 Warning: no grid points on interval from    -119.2500     33.5675 to    -119.2500     33.5650
 Warning: no grid points on interval from    -119.2500     33.5650 to    -119.2500     33.5625
 Warning: no grid points on interval from    -119.2500     33.5625 to    -119.2500     33.5600
 Warning: no grid points on interval from    -119.2500     33.5600 to    -119.2500     33.5575
 Warning: no grid points on interval from    -119.2500     33.5575 to    -119.2500     33.5550
 Warning: no grid points on interval from    -119.2500     33.5550 to    -119.2500     33.5525
 Warning: no grid points on interval from    -119.2500     33.5475 to    -119.2500     33.5450
 Warning: no grid points on interval from    -119.2500     33.5450 to    -119.2500     33.5425
 Warning: no grid points on interval from    -119.2500     33.5425 to    -119.2500     33.5400
 Warning: no grid points on interval from    -119.2500     33.5400 to    -119.2500     33.5375
 Warning: no grid points on interval from    -119.2500     33.5375 to    -119.2500     33.5350
 Warning: no grid points on interval from    -119.2500     33.5350 to    -119.2500     33.5325
 Warning: no grid points on interval from    -119.2500     33.5325 to    -119.2500     33.5300
 Warning: no grid points on interval from    -119.2500     33.5300 to    -119.2500     33.5275
 Warning: no grid points on interval from    -119.2500     33.5225 to    -119.2500     33.5200
 Warning: no grid points on interval from    -119.2500     33.5200 to    -119.2500     33.5175
 Warning: no grid points on interval from    -119.2500     33.5175 to    -119.2500     33.5150
 Warning: no grid points on interval from    -119.2500     33.5150 to    -119.2500     33.5125
 Warning: no grid points on interval from    -119.2500     33.5125 to    -119.2500     33.5100
 Warning: no grid points on interval from    -119.2500     33.5100 to    -119.2500     33.5075
 Warning: no grid points on interval from    -119.2500     33.5075 to    -119.2500     33.5050
 Warning: no grid points on interval from    -119.2500     33.5050 to    -119.2500     33.5025
    
 !
    
 GEN3
    
 !
    
 !***********************************************************
    
 !
    
 !generate binary Matlab-file for block-output
    
 BLOCK  'COMPGRID' NOHEAD 'HsLA.txt' LAYOUT 3 HS
    
 BLOCK  'COMPGRID' NOHEAD 'DirLA.txt' LAYOUT 3 DIR
    
 TEST 1,0
    
 COMPUTE

----------------------------------------------------------------
                  COMPUTATIONAL PART OF SWAN
----------------------------------------------------------------

 Gridresolution       : MXC              41 MYC             31
                      : MCGRD           836
                      : MSC              32 MDC             36
                      : MTC               1
                      : NSTATC            0 ITERMX          50
 Propagation flags    : ITFRE             1 IREFR            1
 Source term flags    : IBOT              0 ISURF            1
                      : IWCAP             1 IWIND            3
                      : ITRIAD            0 IQUAD            2
                      : IVEG              0 ITURBV           0
                      : IMUD              0
 Spatial step         : DX       0.2500E-01 DY      0.2500E-01
 Spectral bin         : df/f     0.1000E+00 DDIR    0.1000E+02
 Physical constants   : GRAV     0.9810E+01 RHO     0.1025E+04
 Wind input           : WSPEED   0.1000E+01 DIR     0.1800E+03
 Tail parameters      : E(f)     0.4000E+01 E(k)    0.2500E+01
                      : A(f)     0.5000E+01 A(k)    0.3000E+01
 Accuracy parameters  : DREL     0.1000E-01 NPNTS   0.9950E+02
                      : DHABS    0.5000E-02 CURVAT  0.5000E-02
                      : GRWMX    0.1000E+00
 Drying/flooding      : LEVEL    0.0000E+00 DEPMIN  0.5000E-01
 The Cartesian convention for wind and wave directions is used
 Scheme for geographic propagation is SORDUP
 Scheme geogr. space  : PROPSC            2 ICMAX            5
 Scheme spectral space: CSS      0.5000E+00 CDD     0.5000E+00
 Current is off
 Quadruplets          : IQUAD             2
                      : LAMBDA   0.2500E+00 CNL4    0.3000E+08
                      : CSH1     0.5500E+01 CSH2    0.8330E+00
                      : CSH3    -0.1250E+01
 Maximum Ursell nr for Snl4 :    0.1000E+02
 Triads is off
 Bottom friction is off
 Vegetation is off
 Turbulence is off
 Fluid mud is off
 W-cap Komen (`84)    : EMPCOF   0.2360E-04 APM     0.3020E-02
                      : DELTA    0.1000E+01
 Battjes&Janssen (`78): ALPHA    0.1000E+01 GAMMA   0.7300E+00
 Set-up is off
 Diffraction is off
 Janssen (`89,`90)    : ALPHA    0.1000E-01 KAPPA   0.4100E+00
 Janssen (`89,`90)    : RHOA     0.1280E+01 RHOW    0.1025E+04

 1st and 2nd gen. wind: CF10     0.1880E+03 CF20    0.5900E+00
                      : CF30     0.1200E+00 CF40    0.2500E+03
                      : CF50     0.2300E-02 CF60   -0.2230E+00
                      : CF70     0.0000E+00 CF80   -0.5600E+00
                      : RHOAW    0.1249E-02 EDMLPM  0.3600E-02
                      : CDRAG    0.1230E-02 UMIN    0.1000E+01
                      : LIM_PM   0.1300E+00

  ---------------------------------------------------------------
  First guess by 2nd generation model flags for first iteration:
  ITER       1 GRWMX      0.1000E+23 ALFA       0.0000E+00
  IWIND      2 IWCAP      0 IQUAD      0
  ITRIAD     0 IBOT       0 ISURF      1
  IVEG       0 ITURBV     0 IMUD       0
  ---------------------------------------------------------------
 iteration    1; sweep 1
 iteration    1; sweep 2
 iteration    1; sweep 3
 iteration    1; sweep 4
 not possible to compute, first iteration

  ---------------------------------------------------------------
  Options given by user are activated for proceeding calculation:
  ITER       2 GRWMX      0.1000E+00 ALFA       0.0000E+00
  IWIND      3 IWCAP      1 IQUAD      2
  ITRIAD     0 IBOT       0 ISURF      1
  IVEG       0 ITURBV     0 IMUD       0
  ---------------------------------------------------------------
 iteration    2; sweep 1
 iteration    2; sweep 2
 iteration    2; sweep 3
 iteration    2; sweep 4
 accuracy OK in  90.17 % of wet grid points ( 99.50 % required)

 iteration    3; sweep 1
 iteration    3; sweep 2
 iteration    3; sweep 3
 iteration    3; sweep 4
 accuracy OK in   5.76 % of wet grid points ( 99.50 % required)

 iteration    4; sweep 1
 iteration    4; sweep 2
 iteration    4; sweep 3
 iteration    4; sweep 4
 accuracy OK in  99.28 % of wet grid points ( 99.50 % required)

 iteration    5; sweep 1
 iteration    5; sweep 2
 iteration    5; sweep 3
 iteration    5; sweep 4
 accuracy OK in  99.64 % of wet grid points ( 99.50 % required)

  ** WARNING : Differences in wave height at the boundary
 Relative difference between input and computation >=   0.10
                         Hs[m]      Hs[m]      Hs[-]
     ix    iy  index   (input) (computed) (relative)
  --------------------------------------------------
    41     9    836       0.20       0.22       0.10
    41     8    835       0.20       0.25       0.23
    41     7    834       0.21       0.28       0.33
    41     6    833       0.21       0.29       0.34
    41     5    832       0.22       0.29       0.32
    41     4    831       0.23       0.30       0.31
    41     3    830       0.23       0.29       0.25
    41     2    829       0.24       0.27       0.14

    
 STOP
