1

                    Execution started at 20160815.185549         



                    ---------------------------------------
                                     SWAN
                    SIMULATION OF WAVES IN NEAR SHORE AREAS
                             VERSION NUMBER 41.01               
                    ---------------------------------------


    
 !*************************HEADING************************
    
 PROJ 'OC' ''
    
 !
    
 !Orange County swell chart.
    
 !
    
 !Data: Nested from Southern California
    
 !********************MODEL INPUT*************************
    
 !
    
 ! SET INRHOG 1
    
 !
    
 !COORDINATES SPHE
    
 !
    
 !
    
 CGRID -118.5  33.25   0. 1.0 .5 40 20 CIRCLE 36 0.0521 1. 31
 Resolution in sigma-space: df/f =  0.1000
    
 !
    
 INPGRID BOTTOM -121 32 0. 4799 3599 .0008333333333 .0008333333333 EXC -99.
    
 !
    
 READINP BOTTOM 1. 'SoCal_high.txt' 1 0 FREE
 ** Warning          : Point removed from computational grid
Point with index (     1,     5) was removed from computational grid, because it is part of a 1D configuration or 1D connection.
 ** Warning          : Point removed from computational grid
Point with index (     1,     6) was removed from computational grid, because it is part of a 1D configuration or 1D connection.
 ** Warning          : Point removed from computational grid
Point with index (     1,     7) was removed from computational grid, because it is part of a 1D configuration or 1D connection.
 ** Warning          : Point removed from computational grid
Point with index (    20,    19) was removed from computational grid, because it is part of a 1D configuration or 1D connection.
    
 !
    
 BOU SHAP JON 3.3 PEAK DSPR DEGR
    
 !
    
 WIND 1.0 180
    
 !
    
 BOUNDNEST NEST 'nestOC' CLOSED
 Warning: no grid points on interval from    -118.4975     33.2500 to    -118.4950     33.2500
 Warning: no grid points on interval from    -118.4950     33.2500 to    -118.4925     33.2500
 Warning: no grid points on interval from    -118.4925     33.2500 to    -118.4900     33.2500
 Warning: no grid points on interval from    -118.4900     33.2500 to    -118.4875     33.2500
 Warning: no grid points on interval from    -118.4875     33.2500 to    -118.4850     33.2500
 Warning: no grid points on interval from    -118.4850     33.2500 to    -118.4825     33.2500
 Warning: no grid points on interval from    -118.4825     33.2500 to    -118.4800     33.2500
 Warning: no grid points on interval from    -118.4800     33.2500 to    -118.4775     33.2500
 Warning: no grid points on interval from    -118.4725     33.2500 to    -118.4700     33.2500
 Warning: no grid points on interval from    -118.4700     33.2500 to    -118.4675     33.2500
 Warning: no grid points on interval from    -118.4675     33.2500 to    -118.4650     33.2500
 Warning: no grid points on interval from    -118.4650     33.2500 to    -118.4625     33.2500
 Warning: no grid points on interval from    -118.4625     33.2500 to    -118.4600     33.2500
 Warning: no grid points on interval from    -118.4600     33.2500 to    -118.4575     33.2500
 Warning: no grid points on interval from    -118.4575     33.2500 to    -118.4550     33.2500
 Warning: no grid points on interval from    -118.4550     33.2500 to    -118.4525     33.2500
 Warning: no grid points on interval from    -118.4475     33.2500 to    -118.4450     33.2500
 Warning: no grid points on interval from    -118.4450     33.2500 to    -118.4425     33.2500
 Warning: no grid points on interval from    -118.4425     33.2500 to    -118.4400     33.2500
 Warning: no grid points on interval from    -118.4400     33.2500 to    -118.4375     33.2500
 Warning: no grid points on interval from    -118.4375     33.2500 to    -118.4350     33.2500
 Warning: no grid points on interval from    -118.4350     33.2500 to    -118.4325     33.2500
 Warning: no grid points on interval from    -118.4325     33.2500 to    -118.4300     33.2500
 Warning: no grid points on interval from    -118.4300     33.2500 to    -118.4275     33.2500
 Warning: no grid points on interval from    -118.4225     33.2500 to    -118.4200     33.2500
 Warning: no grid points on interval from    -118.4200     33.2500 to    -118.4175     33.2500
 Warning: no grid points on interval from    -118.4175     33.2500 to    -118.4150     33.2500
 Warning: no grid points on interval from    -118.4150     33.2500 to    -118.4125     33.2500
 Warning: no grid points on interval from    -118.4125     33.2500 to    -118.4100     33.2500
 Warning: no grid points on interval from    -118.4100     33.2500 to    -118.4075     33.2500
 Warning: no grid points on interval from    -118.4075     33.2500 to    -118.4050     33.2500
 Warning: no grid points on interval from    -118.4050     33.2500 to    -118.4025     33.2500
 Warning: no grid points on interval from    -118.3975     33.2500 to    -118.3950     33.2500
 Warning: no grid points on interval from    -118.3950     33.2500 to    -118.3925     33.2500
 Warning: no grid points on interval from    -118.3925     33.2500 to    -118.3900     33.2500
 Warning: no grid points on interval from    -118.3900     33.2500 to    -118.3875     33.2500
 Warning: no grid points on interval from    -118.3875     33.2500 to    -118.3850     33.2500
 Warning: no grid points on interval from    -118.3850     33.2500 to    -118.3825     33.2500
 Warning: no grid points on interval from    -118.3825     33.2500 to    -118.3800     33.2500
 Warning: no grid points on interval from    -118.3800     33.2500 to    -118.3775     33.2500
 Warning: no grid points on interval from    -118.3725     33.2500 to    -118.3700     33.2500
 Warning: no grid points on interval from    -118.3700     33.2500 to    -118.3675     33.2500
 Warning: no grid points on interval from    -118.3675     33.2500 to    -118.3650     33.2500
 Warning: no grid points on interval from    -118.3650     33.2500 to    -118.3625     33.2500
 Warning: no grid points on interval from    -118.3625     33.2500 to    -118.3600     33.2500
 Warning: no grid points on interval from    -118.3600     33.2500 to    -118.3575     33.2500
 Warning: no grid points on interval from    -118.3575     33.2500 to    -118.3550     33.2500
 Warning: no grid points on interval from    -118.3550     33.2500 to    -118.3525     33.2500
 Warning: no grid points on interval from    -118.3475     33.2500 to    -118.3450     33.2500
 Warning: no grid points on interval from    -118.3450     33.2500 to    -118.3425     33.2500
 Warning: no grid points on interval from    -118.3425     33.2500 to    -118.3400     33.2500
 Warning: no grid points on interval from    -118.3400     33.2500 to    -118.3375     33.2500
 Warning: no grid points on interval from    -118.3375     33.2500 to    -118.3350     33.2500
 Warning: no grid points on interval from    -118.3350     33.2500 to    -118.3325     33.2500
 Warning: no grid points on interval from    -118.3325     33.2500 to    -118.3300     33.2500
 Warning: no grid points on interval from    -118.3300     33.2500 to    -118.3275     33.2500
 Warning: no grid points on interval from    -118.3225     33.2500 to    -118.3200     33.2500
 Warning: no grid points on interval from    -118.3200     33.2500 to    -118.3175     33.2500
 Warning: no grid points on interval from    -118.3175     33.2500 to    -118.3150     33.2500
 Warning: no grid points on interval from    -118.3150     33.2500 to    -118.3125     33.2500
 Warning: no grid points on interval from    -118.3125     33.2500 to    -118.3100     33.2500
 Warning: no grid points on interval from    -118.3100     33.2500 to    -118.3075     33.2500
 Warning: no grid points on interval from    -118.3075     33.2500 to    -118.3050     33.2500
 Warning: no grid points on interval from    -118.3050     33.2500 to    -118.3025     33.2500
 Warning: no grid points on interval from    -118.2975     33.2500 to    -118.2950     33.2500
 Warning: no grid points on interval from    -118.2950     33.2500 to    -118.2925     33.2500
 Warning: no grid points on interval from    -118.2925     33.2500 to    -118.2900     33.2500
 Warning: no grid points on interval from    -118.2900     33.2500 to    -118.2875     33.2500
 Warning: no grid points on interval from    -118.2875     33.2500 to    -118.2850     33.2500
 Warning: no grid points on interval from    -118.2850     33.2500 to    -118.2825     33.2500
 Warning: no grid points on interval from    -118.2825     33.2500 to    -118.2800     33.2500
 Warning: no grid points on interval from    -118.2800     33.2500 to    -118.2775     33.2500
 Warning: no grid points on interval from    -118.2725     33.2500 to    -118.2700     33.2500
 Warning: no grid points on interval from    -118.2700     33.2500 to    -118.2675     33.2500
 Warning: no grid points on interval from    -118.2675     33.2500 to    -118.2650     33.2500
 Warning: no grid points on interval from    -118.2650     33.2500 to    -118.2625     33.2500
 Warning: no grid points on interval from    -118.2625     33.2500 to    -118.2600     33.2500
 Warning: no grid points on interval from    -118.2600     33.2500 to    -118.2575     33.2500
 Warning: no grid points on interval from    -118.2575     33.2500 to    -118.2550     33.2500
 Warning: no grid points on interval from    -118.2550     33.2500 to    -118.2525     33.2500
 Warning: no grid points on interval from    -118.2475     33.2500 to    -118.2450     33.2500
 Warning: no grid points on interval from    -118.2450     33.2500 to    -118.2425     33.2500
 Warning: no grid points on interval from    -118.2425     33.2500 to    -118.2400     33.2500
 Warning: no grid points on interval from    -118.2400     33.2500 to    -118.2375     33.2500
 Warning: no grid points on interval from    -118.2375     33.2500 to    -118.2350     33.2500
 Warning: no grid points on interval from    -118.2350     33.2500 to    -118.2325     33.2500
 Warning: no grid points on interval from    -118.2325     33.2500 to    -118.2300     33.2500
 Warning: no grid points on interval from    -118.2300     33.2500 to    -118.2275     33.2500
 Warning: no grid points on interval from    -118.2225     33.2500 to    -118.2200     33.2500
 Warning: no grid points on interval from    -118.2200     33.2500 to    -118.2175     33.2500
 Warning: no grid points on interval from    -118.2175     33.2500 to    -118.2150     33.2500
 Warning: no grid points on interval from    -118.2150     33.2500 to    -118.2125     33.2500
 Warning: no grid points on interval from    -118.2125     33.2500 to    -118.2100     33.2500
 Warning: no grid points on interval from    -118.2100     33.2500 to    -118.2075     33.2500
 Warning: no grid points on interval from    -118.2075     33.2500 to    -118.2050     33.2500
 Warning: no grid points on interval from    -118.2050     33.2500 to    -118.2025     33.2500
 Warning: no grid points on interval from    -118.1975     33.2500 to    -118.1950     33.2500
 Warning: no grid points on interval from    -118.1950     33.2500 to    -118.1925     33.2500
 Warning: no grid points on interval from    -118.1925     33.2500 to    -118.1900     33.2500
 Warning: no grid points on interval from    -118.1900     33.2500 to    -118.1875     33.2500
 Warning: no grid points on interval from    -118.1875     33.2500 to    -118.1850     33.2500
 Warning: no grid points on interval from    -118.1850     33.2500 to    -118.1825     33.2500
 Warning: no grid points on interval from    -118.1825     33.2500 to    -118.1800     33.2500
 Warning: no grid points on interval from    -118.1800     33.2500 to    -118.1775     33.2500
 Warning: no grid points on interval from    -118.1725     33.2500 to    -118.1700     33.2500
 Warning: no grid points on interval from    -118.1700     33.2500 to    -118.1675     33.2500
 Warning: no grid points on interval from    -118.1675     33.2500 to    -118.1650     33.2500
 Warning: no grid points on interval from    -118.1650     33.2500 to    -118.1625     33.2500
 Warning: no grid points on interval from    -118.1625     33.2500 to    -118.1600     33.2500
 Warning: no grid points on interval from    -118.1600     33.2500 to    -118.1575     33.2500
 Warning: no grid points on interval from    -118.1575     33.2500 to    -118.1550     33.2500
 Warning: no grid points on interval from    -118.1550     33.2500 to    -118.1525     33.2500
 Warning: no grid points on interval from    -118.1475     33.2500 to    -118.1450     33.2500
 Warning: no grid points on interval from    -118.1450     33.2500 to    -118.1425     33.2500
 Warning: no grid points on interval from    -118.1425     33.2500 to    -118.1400     33.2500
 Warning: no grid points on interval from    -118.1400     33.2500 to    -118.1375     33.2500
 Warning: no grid points on interval from    -118.1375     33.2500 to    -118.1350     33.2500
 Warning: no grid points on interval from    -118.1350     33.2500 to    -118.1325     33.2500
 Warning: no grid points on interval from    -118.1325     33.2500 to    -118.1300     33.2500
 Warning: no grid points on interval from    -118.1300     33.2500 to    -118.1275     33.2500
 Warning: no grid points on interval from    -118.1225     33.2500 to    -118.1200     33.2500
 Warning: no grid points on interval from    -118.1200     33.2500 to    -118.1175     33.2500
 Warning: no grid points on interval from    -118.1175     33.2500 to    -118.1150     33.2500
 Warning: no grid points on interval from    -118.1150     33.2500 to    -118.1125     33.2500
 Warning: no grid points on interval from    -118.1125     33.2500 to    -118.1100     33.2500
 Warning: no grid points on interval from    -118.1100     33.2500 to    -118.1075     33.2500
 Warning: no grid points on interval from    -118.1075     33.2500 to    -118.1050     33.2500
 Warning: no grid points on interval from    -118.1050     33.2500 to    -118.1025     33.2500
 Warning: no grid points on interval from    -118.0975     33.2500 to    -118.0950     33.2500
 Warning: no grid points on interval from    -118.0950     33.2500 to    -118.0925     33.2500
 Warning: no grid points on interval from    -118.0925     33.2500 to    -118.0900     33.2500
 Warning: no grid points on interval from    -118.0900     33.2500 to    -118.0875     33.2500
 Warning: no grid points on interval from    -118.0875     33.2500 to    -118.0850     33.2500
 Warning: no grid points on interval from    -118.0850     33.2500 to    -118.0825     33.2500
 Warning: no grid points on interval from    -118.0825     33.2500 to    -118.0800     33.2500
 Warning: no grid points on interval from    -118.0800     33.2500 to    -118.0775     33.2500
 Warning: no grid points on interval from    -118.0725     33.2500 to    -118.0700     33.2500
 Warning: no grid points on interval from    -118.0700     33.2500 to    -118.0675     33.2500
 Warning: no grid points on interval from    -118.0675     33.2500 to    -118.0650     33.2500
 Warning: no grid points on interval from    -118.0650     33.2500 to    -118.0625     33.2500
 Warning: no grid points on interval from    -118.0625     33.2500 to    -118.0600     33.2500
 Warning: no grid points on interval from    -118.0600     33.2500 to    -118.0575     33.2500
 Warning: no grid points on interval from    -118.0575     33.2500 to    -118.0550     33.2500
 Warning: no grid points on interval from    -118.0550     33.2500 to    -118.0525     33.2500
 Warning: no grid points on interval from    -118.0475     33.2500 to    -118.0450     33.2500
 Warning: no grid points on interval from    -118.0450     33.2500 to    -118.0425     33.2500
 Warning: no grid points on interval from    -118.0425     33.2500 to    -118.0400     33.2500
 Warning: no grid points on interval from    -118.0400     33.2500 to    -118.0375     33.2500
 Warning: no grid points on interval from    -118.0375     33.2500 to    -118.0350     33.2500
 Warning: no grid points on interval from    -118.0350     33.2500 to    -118.0325     33.2500
 Warning: no grid points on interval from    -118.0325     33.2500 to    -118.0300     33.2500
 Warning: no grid points on interval from    -118.0300     33.2500 to    -118.0275     33.2500
 Warning: no grid points on interval from    -118.0225     33.2500 to    -118.0200     33.2500
 Warning: no grid points on interval from    -118.0200     33.2500 to    -118.0175     33.2500
 Warning: no grid points on interval from    -118.0175     33.2500 to    -118.0150     33.2500
 Warning: no grid points on interval from    -118.0150     33.2500 to    -118.0125     33.2500
 Warning: no grid points on interval from    -118.0125     33.2500 to    -118.0100     33.2500
 Warning: no grid points on interval from    -118.0100     33.2500 to    -118.0075     33.2500
 Warning: no grid points on interval from    -118.0075     33.2500 to    -118.0050     33.2500
 Warning: no grid points on interval from    -118.0050     33.2500 to    -118.0025     33.2500
 Warning: no grid points on interval from    -117.9975     33.2500 to    -117.9950     33.2500
 Warning: no grid points on interval from    -117.9950     33.2500 to    -117.9925     33.2500
 Warning: no grid points on interval from    -117.9925     33.2500 to    -117.9900     33.2500
 Warning: no grid points on interval from    -117.9900     33.2500 to    -117.9875     33.2500
 Warning: no grid points on interval from    -117.9875     33.2500 to    -117.9850     33.2500
 Warning: no grid points on interval from    -117.9850     33.2500 to    -117.9825     33.2500
 Warning: no grid points on interval from    -117.9825     33.2500 to    -117.9800     33.2500
 Warning: no grid points on interval from    -117.9800     33.2500 to    -117.9775     33.2500
 Warning: no grid points on interval from    -117.9725     33.2500 to    -117.9700     33.2500
 Warning: no grid points on interval from    -117.9700     33.2500 to    -117.9675     33.2500
 Warning: no grid points on interval from    -117.9675     33.2500 to    -117.9650     33.2500
 Warning: no grid points on interval from    -117.9650     33.2500 to    -117.9625     33.2500
 Warning: no grid points on interval from    -117.9625     33.2500 to    -117.9600     33.2500
 Warning: no grid points on interval from    -117.9600     33.2500 to    -117.9575     33.2500
 Warning: no grid points on interval from    -117.9575     33.2500 to    -117.9550     33.2500
 Warning: no grid points on interval from    -117.9550     33.2500 to    -117.9525     33.2500
 Warning: no grid points on interval from    -117.9475     33.2500 to    -117.9450     33.2500
 Warning: no grid points on interval from    -117.9450     33.2500 to    -117.9425     33.2500
 Warning: no grid points on interval from    -117.9425     33.2500 to    -117.9400     33.2500
 Warning: no grid points on interval from    -117.9400     33.2500 to    -117.9375     33.2500
 Warning: no grid points on interval from    -117.9375     33.2500 to    -117.9350     33.2500
 Warning: no grid points on interval from    -117.9350     33.2500 to    -117.9325     33.2500
 Warning: no grid points on interval from    -117.9325     33.2500 to    -117.9300     33.2500
 Warning: no grid points on interval from    -117.9300     33.2500 to    -117.9275     33.2500
 Warning: no grid points on interval from    -117.9225     33.2500 to    -117.9200     33.2500
 Warning: no grid points on interval from    -117.9200     33.2500 to    -117.9175     33.2500
 Warning: no grid points on interval from    -117.9175     33.2500 to    -117.9150     33.2500
 Warning: no grid points on interval from    -117.9150     33.2500 to    -117.9125     33.2500
 Warning: no grid points on interval from    -117.9125     33.2500 to    -117.9100     33.2500
 Warning: no grid points on interval from    -117.9100     33.2500 to    -117.9075     33.2500
 Warning: no grid points on interval from    -117.9075     33.2500 to    -117.9050     33.2500
 Warning: no grid points on interval from    -117.9050     33.2500 to    -117.9025     33.2500
 Warning: no grid points on interval from    -117.8975     33.2500 to    -117.8950     33.2500
 Warning: no grid points on interval from    -117.8950     33.2500 to    -117.8925     33.2500
 Warning: no grid points on interval from    -117.8925     33.2500 to    -117.8900     33.2500
 Warning: no grid points on interval from    -117.8900     33.2500 to    -117.8875     33.2500
 Warning: no grid points on interval from    -117.8875     33.2500 to    -117.8850     33.2500
 Warning: no grid points on interval from    -117.8850     33.2500 to    -117.8825     33.2500
 Warning: no grid points on interval from    -117.8825     33.2500 to    -117.8800     33.2500
 Warning: no grid points on interval from    -117.8800     33.2500 to    -117.8775     33.2500
 Warning: no grid points on interval from    -117.8725     33.2500 to    -117.8700     33.2500
 Warning: no grid points on interval from    -117.8700     33.2500 to    -117.8675     33.2500
 Warning: no grid points on interval from    -117.8675     33.2500 to    -117.8650     33.2500
 Warning: no grid points on interval from    -117.8650     33.2500 to    -117.8625     33.2500
 Warning: no grid points on interval from    -117.8625     33.2500 to    -117.8600     33.2500
 Warning: no grid points on interval from    -117.8600     33.2500 to    -117.8575     33.2500
 Warning: no grid points on interval from    -117.8575     33.2500 to    -117.8550     33.2500
 Warning: no grid points on interval from    -117.8550     33.2500 to    -117.8525     33.2500
 Warning: no grid points on interval from    -117.8475     33.2500 to    -117.8450     33.2500
 Warning: no grid points on interval from    -117.8450     33.2500 to    -117.8425     33.2500
 Warning: no grid points on interval from    -117.8425     33.2500 to    -117.8400     33.2500
 Warning: no grid points on interval from    -117.8400     33.2500 to    -117.8375     33.2500
 Warning: no grid points on interval from    -117.8375     33.2500 to    -117.8350     33.2500
 Warning: no grid points on interval from    -117.8350     33.2500 to    -117.8325     33.2500
 Warning: no grid points on interval from    -117.8325     33.2500 to    -117.8300     33.2500
 Warning: no grid points on interval from    -117.8300     33.2500 to    -117.8275     33.2500
 Warning: no grid points on interval from    -117.8225     33.2500 to    -117.8200     33.2500
 Warning: no grid points on interval from    -117.8200     33.2500 to    -117.8175     33.2500
 Warning: no grid points on interval from    -117.8175     33.2500 to    -117.8150     33.2500
 Warning: no grid points on interval from    -117.8150     33.2500 to    -117.8125     33.2500
 Warning: no grid points on interval from    -117.8125     33.2500 to    -117.8100     33.2500
 Warning: no grid points on interval from    -117.8100     33.2500 to    -117.8075     33.2500
 Warning: no grid points on interval from    -117.8075     33.2500 to    -117.8050     33.2500
 Warning: no grid points on interval from    -117.8050     33.2500 to    -117.8025     33.2500
 Warning: no grid points on interval from    -117.7975     33.2500 to    -117.7950     33.2500
 Warning: no grid points on interval from    -117.7950     33.2500 to    -117.7925     33.2500
 Warning: no grid points on interval from    -117.7925     33.2500 to    -117.7900     33.2500
 Warning: no grid points on interval from    -117.7900     33.2500 to    -117.7875     33.2500
 Warning: no grid points on interval from    -117.7875     33.2500 to    -117.7850     33.2500
 Warning: no grid points on interval from    -117.7850     33.2500 to    -117.7825     33.2500
 Warning: no grid points on interval from    -117.7825     33.2500 to    -117.7800     33.2500
 Warning: no grid points on interval from    -117.7800     33.2500 to    -117.7775     33.2500
 Warning: no grid points on interval from    -117.7725     33.2500 to    -117.7700     33.2500
 Warning: no grid points on interval from    -117.7700     33.2500 to    -117.7675     33.2500
 Warning: no grid points on interval from    -117.7675     33.2500 to    -117.7650     33.2500
 Warning: no grid points on interval from    -117.7650     33.2500 to    -117.7625     33.2500
 Warning: no grid points on interval from    -117.7625     33.2500 to    -117.7600     33.2500
 Warning: no grid points on interval from    -117.7600     33.2500 to    -117.7575     33.2500
 Warning: no grid points on interval from    -117.7575     33.2500 to    -117.7550     33.2500
 Warning: no grid points on interval from    -117.7550     33.2500 to    -117.7525     33.2500
 Warning: no grid points on interval from    -117.7475     33.2500 to    -117.7450     33.2500
 Warning: no grid points on interval from    -117.7450     33.2500 to    -117.7425     33.2500
 Warning: no grid points on interval from    -117.7425     33.2500 to    -117.7400     33.2500
 Warning: no grid points on interval from    -117.7400     33.2500 to    -117.7375     33.2500
 Warning: no grid points on interval from    -117.7375     33.2500 to    -117.7350     33.2500
 Warning: no grid points on interval from    -117.7350     33.2500 to    -117.7325     33.2500
 Warning: no grid points on interval from    -117.7325     33.2500 to    -117.7300     33.2500
 Warning: no grid points on interval from    -117.7300     33.2500 to    -117.7275     33.2500
 Warning: no grid points on interval from    -117.7225     33.2500 to    -117.7200     33.2500
 Warning: no grid points on interval from    -117.7200     33.2500 to    -117.7175     33.2500
 Warning: no grid points on interval from    -117.7175     33.2500 to    -117.7150     33.2500
 Warning: no grid points on interval from    -117.7150     33.2500 to    -117.7125     33.2500
 Warning: no grid points on interval from    -117.7125     33.2500 to    -117.7100     33.2500
 Warning: no grid points on interval from    -117.7100     33.2500 to    -117.7075     33.2500
 Warning: no grid points on interval from    -117.7075     33.2500 to    -117.7050     33.2500
 Warning: no grid points on interval from    -117.7050     33.2500 to    -117.7025     33.2500
 Warning: no grid points on interval from    -117.6975     33.2500 to    -117.6950     33.2500
 Warning: no grid points on interval from    -117.6950     33.2500 to    -117.6925     33.2500
 Warning: no grid points on interval from    -117.6925     33.2500 to    -117.6900     33.2500
 Warning: no grid points on interval from    -117.6900     33.2500 to    -117.6875     33.2500
 Warning: no grid points on interval from    -117.6875     33.2500 to    -117.6850     33.2500
 Warning: no grid points on interval from    -117.6850     33.2500 to    -117.6825     33.2500
 Warning: no grid points on interval from    -117.6825     33.2500 to    -117.6800     33.2500
 Warning: no grid points on interval from    -117.6800     33.2500 to    -117.6775     33.2500
 Warning: no grid points on interval from    -117.6725     33.2500 to    -117.6700     33.2500
 Warning: no grid points on interval from    -117.6700     33.2500 to    -117.6675     33.2500
 Warning: no grid points on interval from    -117.6675     33.2500 to    -117.6650     33.2500
 Warning: no grid points on interval from    -117.6650     33.2500 to    -117.6625     33.2500
 Warning: no grid points on interval from    -117.6625     33.2500 to    -117.6600     33.2500
 Warning: no grid points on interval from    -117.6600     33.2500 to    -117.6575     33.2500
 Warning: no grid points on interval from    -117.6575     33.2500 to    -117.6550     33.2500
 Warning: no grid points on interval from    -117.6550     33.2500 to    -117.6525     33.2500
 Warning: no grid points on interval from    -117.6475     33.2500 to    -117.6450     33.2500
 Warning: no grid points on interval from    -117.6450     33.2500 to    -117.6425     33.2500
 Warning: no grid points on interval from    -117.6425     33.2500 to    -117.6400     33.2500
 Warning: no grid points on interval from    -117.6400     33.2500 to    -117.6375     33.2500
 Warning: no grid points on interval from    -117.6375     33.2500 to    -117.6350     33.2500
 Warning: no grid points on interval from    -117.6350     33.2500 to    -117.6325     33.2500
 Warning: no grid points on interval from    -117.6325     33.2500 to    -117.6300     33.2500
 Warning: no grid points on interval from    -117.6300     33.2500 to    -117.6275     33.2500
 Warning: no grid points on interval from    -117.6225     33.2500 to    -117.6200     33.2500
 Warning: no grid points on interval from    -117.6200     33.2500 to    -117.6175     33.2500
 Warning: no grid points on interval from    -117.6175     33.2500 to    -117.6150     33.2500
 Warning: no grid points on interval from    -117.6150     33.2500 to    -117.6125     33.2500
 Warning: no grid points on interval from    -117.6125     33.2500 to    -117.6100     33.2500
 Warning: no grid points on interval from    -117.6100     33.2500 to    -117.6075     33.2500
 Warning: no grid points on interval from    -117.6075     33.2500 to    -117.6050     33.2500
 Warning: no grid points on interval from    -117.6050     33.2500 to    -117.6025     33.2500
 Warning: no grid points on interval from    -117.5975     33.2500 to    -117.5950     33.2500
 Warning: no grid points on interval from    -117.5950     33.2500 to    -117.5925     33.2500
 Warning: no grid points on interval from    -117.5925     33.2500 to    -117.5900     33.2500
 Warning: no grid points on interval from    -117.5900     33.2500 to    -117.5875     33.2500
 Warning: no grid points on interval from    -117.5875     33.2500 to    -117.5850     33.2500
 Warning: no grid points on interval from    -117.5850     33.2500 to    -117.5825     33.2500
 Warning: no grid points on interval from    -117.5825     33.2500 to    -117.5800     33.2500
 Warning: no grid points on interval from    -117.5800     33.2500 to    -117.5775     33.2500
 Warning: no grid points on interval from    -117.5725     33.2500 to    -117.5700     33.2500
 Warning: no grid points on interval from    -117.5700     33.2500 to    -117.5675     33.2500
 Warning: no grid points on interval from    -117.5675     33.2500 to    -117.5650     33.2500
 Warning: no grid points on interval from    -117.5650     33.2500 to    -117.5625     33.2500
 Warning: no grid points on interval from    -117.5625     33.2500 to    -117.5600     33.2500
 Warning: no grid points on interval from    -117.5600     33.2500 to    -117.5575     33.2500
 Warning: no grid points on interval from    -117.5575     33.2500 to    -117.5550     33.2500
 Warning: no grid points on interval from    -117.5550     33.2500 to    -117.5525     33.2500
 Warning: no grid points on interval from    -117.5475     33.2500 to    -117.5450     33.2500
 Warning: no grid points on interval from    -117.5450     33.2500 to    -117.5425     33.2500
 Warning: no grid points on interval from    -117.5425     33.2500 to    -117.5400     33.2500
 Warning: no grid points on interval from    -117.5400     33.2500 to    -117.5375     33.2500
 Warning: no grid points on interval from    -117.5375     33.2500 to    -117.5350     33.2500
 Warning: no grid points on interval from    -117.5350     33.2500 to    -117.5325     33.2500
 Warning: no grid points on interval from    -117.5325     33.2500 to    -117.5300     33.2500
 Warning: no grid points on interval from    -117.5300     33.2500 to    -117.5275     33.2500
 Warning: no grid points on interval from    -117.5225     33.2500 to    -117.5200     33.2500
 Warning: no grid points on interval from    -117.5200     33.2500 to    -117.5175     33.2500
 Warning: no grid points on interval from    -117.5175     33.2500 to    -117.5150     33.2500
 Warning: no grid points on interval from    -117.5150     33.2500 to    -117.5125     33.2500
 Warning: no grid points on interval from    -117.5125     33.2500 to    -117.5100     33.2500
 Warning: no grid points on interval from    -117.5100     33.2500 to    -117.5075     33.2500
 Warning: no grid points on interval from    -117.5075     33.2500 to    -117.5050     33.2500
 Warning: no grid points on interval from    -117.5050     33.2500 to    -117.5025     33.2500
 Warning: no grid points on interval from    -117.5000     33.2525 to    -117.5000     33.2550
 Warning: no grid points on interval from    -117.5000     33.2550 to    -117.5000     33.2575
 Warning: no grid points on interval from    -117.5000     33.2575 to    -117.5000     33.2600
 Warning: no grid points on interval from    -117.5000     33.2600 to    -117.5000     33.2625
 Warning: no grid points on interval from    -117.5000     33.2625 to    -117.5000     33.2650
 Warning: no grid points on interval from    -117.5000     33.2650 to    -117.5000     33.2675
 Warning: no grid points on interval from    -117.5000     33.2675 to    -117.5000     33.2700
 Warning: no grid points on interval from    -117.5000     33.2700 to    -117.5000     33.2725
 Warning: no grid points on interval from    -117.5000     33.2775 to    -117.5000     33.2800
 Warning: no grid points on interval from    -117.5000     33.2800 to    -117.5000     33.2825
 Warning: no grid points on interval from    -117.5000     33.2825 to    -117.5000     33.2850
 Warning: no grid points on interval from    -117.5000     33.2850 to    -117.5000     33.2875
 Warning: no grid points on interval from    -117.5000     33.2875 to    -117.5000     33.2900
 Warning: no grid points on interval from    -117.5000     33.2900 to    -117.5000     33.2925
 Warning: no grid points on interval from    -117.5000     33.2925 to    -117.5000     33.2950
 Warning: no grid points on interval from    -117.5000     33.2950 to    -117.5000     33.2975
 Warning: no grid points on interval from    -117.5000     33.3025 to    -117.5000     33.3050
 Warning: no grid points on interval from    -117.5000     33.3050 to    -117.5000     33.3075
 Warning: no grid points on interval from    -117.5000     33.3075 to    -117.5000     33.3100
 Warning: no grid points on interval from    -117.5000     33.3100 to    -117.5000     33.3125
 Warning: no grid points on interval from    -117.5000     33.3125 to    -117.5000     33.3150
 Warning: no grid points on interval from    -117.5000     33.3150 to    -117.5000     33.3175
 Warning: no grid points on interval from    -117.5000     33.3175 to    -117.5000     33.3200
 Warning: no grid points on interval from    -117.5000     33.3200 to    -117.5000     33.3225
 Warning: no grid points on interval from    -117.5000     33.3275 to    -117.5000     33.3300
 Warning: no grid points on interval from    -117.5000     33.3300 to    -117.5000     33.3325
 Warning: no grid points on interval from    -117.5000     33.3325 to    -117.5000     33.3350
 Warning: no grid points on interval from    -117.5000     33.3350 to    -117.5000     33.3375
 Warning: no grid points on interval from    -117.5000     33.3375 to    -117.5000     33.3400
 Warning: no grid points on interval from    -117.5000     33.3400 to    -117.5000     33.3425
 Warning: no grid points on interval from    -117.5000     33.3425 to    -117.5000     33.3450
 Warning: no grid points on interval from    -117.5000     33.3450 to    -117.5000     33.3475
 Warning: no grid points on interval from    -117.5000     33.3475 to    -117.5000     33.3500
 Warning: no grid points on interval from    -117.5000     33.3500 to    -117.5000     33.3525
 Warning: no grid points on interval from    -117.5000     33.3525 to    -117.5000     33.3550
 Warning: no grid points on interval from    -117.5000     33.3550 to    -117.5000     33.3575
 Warning: no grid points on interval from    -117.5000     33.3575 to    -117.5000     33.3600
 Warning: no grid points on interval from    -117.5000     33.3600 to    -117.5000     33.3625
 Warning: no grid points on interval from    -117.5000     33.3625 to    -117.5000     33.3650
 Warning: no grid points on interval from    -117.5000     33.3650 to    -117.5000     33.3675
 Warning: no grid points on interval from    -117.5000     33.3675 to    -117.5000     33.3700
 Warning: no grid points on interval from    -117.5000     33.3700 to    -117.5000     33.3725
 Warning: no grid points on interval from    -117.5000     33.3725 to    -117.5000     33.3750
 Warning: no grid points on interval from    -117.5000     33.3750 to    -117.5000     33.3775
 Warning: no grid points on interval from    -117.5000     33.3775 to    -117.5000     33.3800
 Warning: no grid points on interval from    -117.5000     33.3800 to    -117.5000     33.3825
 Warning: no grid points on interval from    -117.5000     33.3825 to    -117.5000     33.3850
 Warning: no grid points on interval from    -117.5000     33.3850 to    -117.5000     33.3875
 Warning: no grid points on interval from    -117.5000     33.3875 to    -117.5000     33.3900
 Warning: no grid points on interval from    -117.5000     33.3900 to    -117.5000     33.3925
 Warning: no grid points on interval from    -117.5000     33.3925 to    -117.5000     33.3950
 Warning: no grid points on interval from    -117.5000     33.3950 to    -117.5000     33.3975
 Warning: no grid points on interval from    -117.5000     33.3975 to    -117.5000     33.4000
 Warning: no grid points on interval from    -117.5000     33.4000 to    -117.5000     33.4025
 Warning: no grid points on interval from    -117.5000     33.4025 to    -117.5000     33.4050
 Warning: no grid points on interval from    -117.5000     33.4050 to    -117.5000     33.4075
 Warning: no grid points on interval from    -117.5000     33.4075 to    -117.5000     33.4100
 Warning: no grid points on interval from    -117.5000     33.4100 to    -117.5000     33.4125
 Warning: no grid points on interval from    -117.5000     33.4125 to    -117.5000     33.4150
 Warning: no grid points on interval from    -117.5000     33.4150 to    -117.5000     33.4175
 Warning: no grid points on interval from    -117.5000     33.4175 to    -117.5000     33.4200
 Warning: no grid points on interval from    -117.5000     33.4200 to    -117.5000     33.4225
 Warning: no grid points on interval from    -117.5000     33.4225 to    -117.5000     33.4250
 Warning: no grid points on interval from    -117.5000     33.4250 to    -117.5000     33.4275
 Warning: no grid points on interval from    -117.5000     33.4275 to    -117.5000     33.4300
 Warning: no grid points on interval from    -117.5000     33.4300 to    -117.5000     33.4325
 Warning: no grid points on interval from    -117.5000     33.4325 to    -117.5000     33.4350
 Warning: no grid points on interval from    -117.5000     33.4350 to    -117.5000     33.4375
 Warning: no grid points on interval from    -117.5000     33.4375 to    -117.5000     33.4400
 Warning: no grid points on interval from    -117.5000     33.4400 to    -117.5000     33.4425
 Warning: no grid points on interval from    -117.5000     33.4425 to    -117.5000     33.4450
 Warning: no grid points on interval from    -117.5000     33.4450 to    -117.5000     33.4475
 Warning: no grid points on interval from    -117.5000     33.4475 to    -117.5000     33.4500
 Warning: no grid points on interval from    -117.5000     33.4500 to    -117.5000     33.4525
 Warning: no grid points on interval from    -117.5000     33.4525 to    -117.5000     33.4550
 Warning: no grid points on interval from    -117.5000     33.4550 to    -117.5000     33.4575
 Warning: no grid points on interval from    -117.5000     33.4575 to    -117.5000     33.4600
 Warning: no grid points on interval from    -117.5000     33.4600 to    -117.5000     33.4625
 Warning: no grid points on interval from    -117.5000     33.4625 to    -117.5000     33.4650
 Warning: no grid points on interval from    -117.5000     33.4650 to    -117.5000     33.4675
 Warning: no grid points on interval from    -117.5000     33.4675 to    -117.5000     33.4700
 Warning: no grid points on interval from    -117.5000     33.4700 to    -117.5000     33.4725
 Warning: no grid points on interval from    -117.5000     33.4725 to    -117.5000     33.4750
 Warning: no grid points on interval from    -117.5000     33.4750 to    -117.5000     33.4775
 Warning: no grid points on interval from    -117.5000     33.4775 to    -117.5000     33.4800
 Warning: no grid points on interval from    -117.5000     33.4800 to    -117.5000     33.4825
 Warning: no grid points on interval from    -117.5000     33.4825 to    -117.5000     33.4850
 Warning: no grid points on interval from    -117.5000     33.4850 to    -117.5000     33.4875
 Warning: no grid points on interval from    -117.5000     33.4875 to    -117.5000     33.4900
 Warning: no grid points on interval from    -117.5000     33.4900 to    -117.5000     33.4925
 Warning: no grid points on interval from    -117.5000     33.4925 to    -117.5000     33.4950
 Warning: no grid points on interval from    -117.5000     33.4950 to    -117.5000     33.4975
 Warning: no grid points on interval from    -117.5000     33.4975 to    -117.5000     33.5000
 Warning: no grid points on interval from    -117.5000     33.5000 to    -117.5000     33.5025
 Warning: no grid points on interval from    -117.5000     33.5025 to    -117.5000     33.5050
 Warning: no grid points on interval from    -117.5000     33.5050 to    -117.5000     33.5075
 Warning: no grid points on interval from    -117.5000     33.5075 to    -117.5000     33.5100
 Warning: no grid points on interval from    -117.5000     33.5100 to    -117.5000     33.5125
 Warning: no grid points on interval from    -117.5000     33.5125 to    -117.5000     33.5150
 Warning: no grid points on interval from    -117.5000     33.5150 to    -117.5000     33.5175
 Warning: no grid points on interval from    -117.5000     33.5175 to    -117.5000     33.5200
 Warning: no grid points on interval from    -117.5000     33.5200 to    -117.5000     33.5225
 Warning: no grid points on interval from    -117.5000     33.5225 to    -117.5000     33.5250
 Warning: no grid points on interval from    -117.5000     33.5250 to    -117.5000     33.5275
 Warning: no grid points on interval from    -117.5000     33.5275 to    -117.5000     33.5300
 Warning: no grid points on interval from    -117.5000     33.5300 to    -117.5000     33.5325
 Warning: no grid points on interval from    -117.5000     33.5325 to    -117.5000     33.5350
 Warning: no grid points on interval from    -117.5000     33.5350 to    -117.5000     33.5375
 Warning: no grid points on interval from    -117.5000     33.5375 to    -117.5000     33.5400
 Warning: no grid points on interval from    -117.5000     33.5400 to    -117.5000     33.5425
 Warning: no grid points on interval from    -117.5000     33.5425 to    -117.5000     33.5450
 Warning: no grid points on interval from    -117.5000     33.5450 to    -117.5000     33.5475
 Warning: no grid points on interval from    -117.5000     33.5475 to    -117.5000     33.5500
 Warning: no grid points on interval from    -117.5000     33.5500 to    -117.5000     33.5525
 Warning: no grid points on interval from    -117.5000     33.5525 to    -117.5000     33.5550
 Warning: no grid points on interval from    -117.5000     33.5550 to    -117.5000     33.5575
 Warning: no grid points on interval from    -117.5000     33.5575 to    -117.5000     33.5600
 Warning: no grid points on interval from    -117.5000     33.5600 to    -117.5000     33.5625
 Warning: no grid points on interval from    -117.5000     33.5625 to    -117.5000     33.5650
 Warning: no grid points on interval from    -117.5000     33.5650 to    -117.5000     33.5675
 Warning: no grid points on interval from    -117.5000     33.5675 to    -117.5000     33.5700
 Warning: no grid points on interval from    -117.5000     33.5700 to    -117.5000     33.5725
 Warning: no grid points on interval from    -117.5000     33.5725 to    -117.5000     33.5750
 Warning: no grid points on interval from    -117.5000     33.5750 to    -117.5000     33.5775
 Warning: no grid points on interval from    -117.5000     33.5775 to    -117.5000     33.5800
 Warning: no grid points on interval from    -117.5000     33.5800 to    -117.5000     33.5825
 Warning: no grid points on interval from    -117.5000     33.5825 to    -117.5000     33.5850
 Warning: no grid points on interval from    -117.5000     33.5850 to    -117.5000     33.5875
 Warning: no grid points on interval from    -117.5000     33.5875 to    -117.5000     33.5900
 Warning: no grid points on interval from    -117.5000     33.5900 to    -117.5000     33.5925
 Warning: no grid points on interval from    -117.5000     33.5925 to    -117.5000     33.5950
 Warning: no grid points on interval from    -117.5000     33.5950 to    -117.5000     33.5975
 Warning: no grid points on interval from    -117.5000     33.5975 to    -117.5000     33.6000
 Warning: no grid points on interval from    -117.5000     33.6000 to    -117.5000     33.6025
 Warning: no grid points on interval from    -117.5000     33.6025 to    -117.5000     33.6050
 Warning: no grid points on interval from    -117.5000     33.6050 to    -117.5000     33.6075
 Warning: no grid points on interval from    -117.5000     33.6075 to    -117.5000     33.6100
 Warning: no grid points on interval from    -117.5000     33.6100 to    -117.5000     33.6125
 Warning: no grid points on interval from    -117.5000     33.6125 to    -117.5000     33.6150
 Warning: no grid points on interval from    -117.5000     33.6150 to    -117.5000     33.6175
 Warning: no grid points on interval from    -117.5000     33.6175 to    -117.5000     33.6200
 Warning: no grid points on interval from    -117.5000     33.6200 to    -117.5000     33.6225
 Warning: no grid points on interval from    -117.5000     33.6225 to    -117.5000     33.6250
 Warning: no grid points on interval from    -117.5000     33.6250 to    -117.5000     33.6275
 Warning: no grid points on interval from    -117.5000     33.6275 to    -117.5000     33.6300
 Warning: no grid points on interval from    -117.5000     33.6300 to    -117.5000     33.6325
 Warning: no grid points on interval from    -117.5000     33.6325 to    -117.5000     33.6350
 Warning: no grid points on interval from    -117.5000     33.6350 to    -117.5000     33.6375
 Warning: no grid points on interval from    -117.5000     33.6375 to    -117.5000     33.6400
 Warning: no grid points on interval from    -117.5000     33.6400 to    -117.5000     33.6425
 Warning: no grid points on interval from    -117.5000     33.6425 to    -117.5000     33.6450
 Warning: no grid points on interval from    -117.5000     33.6450 to    -117.5000     33.6475
 Warning: no grid points on interval from    -117.5000     33.6475 to    -117.5000     33.6500
 Warning: no grid points on interval from    -117.5000     33.6500 to    -117.5000     33.6525
 Warning: no grid points on interval from    -117.5000     33.6525 to    -117.5000     33.6550
 Warning: no grid points on interval from    -117.5000     33.6550 to    -117.5000     33.6575
 Warning: no grid points on interval from    -117.5000     33.6575 to    -117.5000     33.6600
 Warning: no grid points on interval from    -117.5000     33.6600 to    -117.5000     33.6625
 Warning: no grid points on interval from    -117.5000     33.6625 to    -117.5000     33.6650
 Warning: no grid points on interval from    -117.5000     33.6650 to    -117.5000     33.6675
 Warning: no grid points on interval from    -117.5000     33.6675 to    -117.5000     33.6700
 Warning: no grid points on interval from    -117.5000     33.6700 to    -117.5000     33.6725
 Warning: no grid points on interval from    -117.5000     33.6725 to    -117.5000     33.6750
 Warning: no grid points on interval from    -117.5000     33.6750 to    -117.5000     33.6775
 Warning: no grid points on interval from    -117.5000     33.6775 to    -117.5000     33.6800
 Warning: no grid points on interval from    -117.5000     33.6800 to    -117.5000     33.6825
 Warning: no grid points on interval from    -117.5000     33.6825 to    -117.5000     33.6850
 Warning: no grid points on interval from    -117.5000     33.6850 to    -117.5000     33.6875
 Warning: no grid points on interval from    -117.5000     33.6875 to    -117.5000     33.6900
 Warning: no grid points on interval from    -117.5000     33.6900 to    -117.5000     33.6925
 Warning: no grid points on interval from    -117.5000     33.6925 to    -117.5000     33.6950
 Warning: no grid points on interval from    -117.5000     33.6950 to    -117.5000     33.6975
 Warning: no grid points on interval from    -117.5000     33.6975 to    -117.5000     33.7000
 Warning: no grid points on interval from    -117.5000     33.7000 to    -117.5000     33.7025
 Warning: no grid points on interval from    -117.5000     33.7025 to    -117.5000     33.7050
 Warning: no grid points on interval from    -117.5000     33.7050 to    -117.5000     33.7075
 Warning: no grid points on interval from    -117.5000     33.7075 to    -117.5000     33.7100
 Warning: no grid points on interval from    -117.5000     33.7100 to    -117.5000     33.7125
 Warning: no grid points on interval from    -117.5000     33.7125 to    -117.5000     33.7150
 Warning: no grid points on interval from    -117.5000     33.7150 to    -117.5000     33.7175
 Warning: no grid points on interval from    -117.5000     33.7175 to    -117.5000     33.7200
 Warning: no grid points on interval from    -117.5000     33.7200 to    -117.5000     33.7225
 Warning: no grid points on interval from    -117.5000     33.7225 to    -117.5000     33.7250
 Warning: no grid points on interval from    -117.5000     33.7250 to    -117.5000     33.7275
 Warning: no grid points on interval from    -117.5000     33.7275 to    -117.5000     33.7300
 Warning: no grid points on interval from    -117.5000     33.7300 to    -117.5000     33.7325
 Warning: no grid points on interval from    -117.5000     33.7325 to    -117.5000     33.7350
 Warning: no grid points on interval from    -117.5000     33.7350 to    -117.5000     33.7375
 Warning: no grid points on interval from    -117.5000     33.7375 to    -117.5000     33.7400
 Warning: no grid points on interval from    -117.5000     33.7400 to    -117.5000     33.7425
 Warning: no grid points on interval from    -117.5000     33.7425 to    -117.5000     33.7450
 Warning: no grid points on interval from    -117.5000     33.7450 to    -117.5000     33.7475
 Warning: no grid points on interval from    -117.5000     33.7475 to    -117.5000     33.7500
 Warning: no grid points on interval from    -117.5000     33.7500 to    -117.5025     33.7500
 Warning: no grid points on interval from    -117.5025     33.7500 to    -117.5050     33.7500
 Warning: no grid points on interval from    -117.5050     33.7500 to    -117.5075     33.7500
 Warning: no grid points on interval from    -117.5075     33.7500 to    -117.5100     33.7500
 Warning: no grid points on interval from    -117.5100     33.7500 to    -117.5125     33.7500
 Warning: no grid points on interval from    -117.5125     33.7500 to    -117.5150     33.7500
 Warning: no grid points on interval from    -117.5150     33.7500 to    -117.5175     33.7500
 Warning: no grid points on interval from    -117.5175     33.7500 to    -117.5200     33.7500
 Warning: no grid points on interval from    -117.5200     33.7500 to    -117.5225     33.7500
 Warning: no grid points on interval from    -117.5225     33.7500 to    -117.5250     33.7500
 Warning: no grid points on interval from    -117.5250     33.7500 to    -117.5275     33.7500
 Warning: no grid points on interval from    -117.5275     33.7500 to    -117.5300     33.7500
 Warning: no grid points on interval from    -117.5300     33.7500 to    -117.5325     33.7500
 Warning: no grid points on interval from    -117.5325     33.7500 to    -117.5350     33.7500
 Warning: no grid points on interval from    -117.5350     33.7500 to    -117.5375     33.7500
 Warning: no grid points on interval from    -117.5375     33.7500 to    -117.5400     33.7500
 Warning: no grid points on interval from    -117.5400     33.7500 to    -117.5425     33.7500
 Warning: no grid points on interval from    -117.5425     33.7500 to    -117.5450     33.7500
 Warning: no grid points on interval from    -117.5450     33.7500 to    -117.5475     33.7500
 Warning: no grid points on interval from    -117.5475     33.7500 to    -117.5500     33.7500
 Warning: no grid points on interval from    -117.5500     33.7500 to    -117.5525     33.7500
 Warning: no grid points on interval from    -117.5525     33.7500 to    -117.5550     33.7500
 Warning: no grid points on interval from    -117.5550     33.7500 to    -117.5575     33.7500
 Warning: no grid points on interval from    -117.5575     33.7500 to    -117.5600     33.7500
 Warning: no grid points on interval from    -117.5600     33.7500 to    -117.5625     33.7500
 Warning: no grid points on interval from    -117.5625     33.7500 to    -117.5650     33.7500
 Warning: no grid points on interval from    -117.5650     33.7500 to    -117.5675     33.7500
 Warning: no grid points on interval from    -117.5675     33.7500 to    -117.5700     33.7500
 Warning: no grid points on interval from    -117.5700     33.7500 to    -117.5725     33.7500
 Warning: no grid points on interval from    -117.5725     33.7500 to    -117.5750     33.7500
 Warning: no grid points on interval from    -117.5750     33.7500 to    -117.5775     33.7500
 Warning: no grid points on interval from    -117.5775     33.7500 to    -117.5800     33.7500
 Warning: no grid points on interval from    -117.5800     33.7500 to    -117.5825     33.7500
 Warning: no grid points on interval from    -117.5825     33.7500 to    -117.5850     33.7500
 Warning: no grid points on interval from    -117.5850     33.7500 to    -117.5875     33.7500
 Warning: no grid points on interval from    -117.5875     33.7500 to    -117.5900     33.7500
 Warning: no grid points on interval from    -117.5900     33.7500 to    -117.5925     33.7500
 Warning: no grid points on interval from    -117.5925     33.7500 to    -117.5950     33.7500
 Warning: no grid points on interval from    -117.5950     33.7500 to    -117.5975     33.7500
 Warning: no grid points on interval from    -117.5975     33.7500 to    -117.6000     33.7500
 Warning: no grid points on interval from    -117.6000     33.7500 to    -117.6025     33.7500
 Warning: no grid points on interval from    -117.6025     33.7500 to    -117.6050     33.7500
 Warning: no grid points on interval from    -117.6050     33.7500 to    -117.6075     33.7500
 Warning: no grid points on interval from    -117.6075     33.7500 to    -117.6100     33.7500
 Warning: no grid points on interval from    -117.6100     33.7500 to    -117.6125     33.7500
 Warning: no grid points on interval from    -117.6125     33.7500 to    -117.6150     33.7500
 Warning: no grid points on interval from    -117.6150     33.7500 to    -117.6175     33.7500
 Warning: no grid points on interval from    -117.6175     33.7500 to    -117.6200     33.7500
 Warning: no grid points on interval from    -117.6200     33.7500 to    -117.6225     33.7500
 Warning: no grid points on interval from    -117.6225     33.7500 to    -117.6250     33.7500
 Warning: no grid points on interval from    -117.6250     33.7500 to    -117.6275     33.7500
 Warning: no grid points on interval from    -117.6275     33.7500 to    -117.6300     33.7500
 Warning: no grid points on interval from    -117.6300     33.7500 to    -117.6325     33.7500
 Warning: no grid points on interval from    -117.6325     33.7500 to    -117.6350     33.7500
 Warning: no grid points on interval from    -117.6350     33.7500 to    -117.6375     33.7500
 Warning: no grid points on interval from    -117.6375     33.7500 to    -117.6400     33.7500
 Warning: no grid points on interval from    -117.6400     33.7500 to    -117.6425     33.7500
 Warning: no grid points on interval from    -117.6425     33.7500 to    -117.6450     33.7500
 Warning: no grid points on interval from    -117.6450     33.7500 to    -117.6475     33.7500
 Warning: no grid points on interval from    -117.6475     33.7500 to    -117.6500     33.7500
 Warning: no grid points on interval from    -117.6500     33.7500 to    -117.6525     33.7500
 Warning: no grid points on interval from    -117.6525     33.7500 to    -117.6550     33.7500
 Warning: no grid points on interval from    -117.6550     33.7500 to    -117.6575     33.7500
 Warning: no grid points on interval from    -117.6575     33.7500 to    -117.6600     33.7500
 Warning: no grid points on interval from    -117.6600     33.7500 to    -117.6625     33.7500
 Warning: no grid points on interval from    -117.6625     33.7500 to    -117.6650     33.7500
 Warning: no grid points on interval from    -117.6650     33.7500 to    -117.6675     33.7500
 Warning: no grid points on interval from    -117.6675     33.7500 to    -117.6700     33.7500
 Warning: no grid points on interval from    -117.6700     33.7500 to    -117.6725     33.7500
 Warning: no grid points on interval from    -117.6725     33.7500 to    -117.6750     33.7500
 Warning: no grid points on interval from    -117.6750     33.7500 to    -117.6775     33.7500
 Warning: no grid points on interval from    -117.6775     33.7500 to    -117.6800     33.7500
 Warning: no grid points on interval from    -117.6800     33.7500 to    -117.6825     33.7500
 Warning: no grid points on interval from    -117.6825     33.7500 to    -117.6850     33.7500
 Warning: no grid points on interval from    -117.6850     33.7500 to    -117.6875     33.7500
 Warning: no grid points on interval from    -117.6875     33.7500 to    -117.6900     33.7500
 Warning: no grid points on interval from    -117.6900     33.7500 to    -117.6925     33.7500
 Warning: no grid points on interval from    -117.6925     33.7500 to    -117.6950     33.7500
 Warning: no grid points on interval from    -117.6950     33.7500 to    -117.6975     33.7500
 Warning: no grid points on interval from    -117.6975     33.7500 to    -117.7000     33.7500
 Warning: no grid points on interval from    -117.7000     33.7500 to    -117.7025     33.7500
 Warning: no grid points on interval from    -117.7025     33.7500 to    -117.7050     33.7500
 Warning: no grid points on interval from    -117.7050     33.7500 to    -117.7075     33.7500
 Warning: no grid points on interval from    -117.7075     33.7500 to    -117.7100     33.7500
 Warning: no grid points on interval from    -117.7100     33.7500 to    -117.7125     33.7500
 Warning: no grid points on interval from    -117.7125     33.7500 to    -117.7150     33.7500
 Warning: no grid points on interval from    -117.7150     33.7500 to    -117.7175     33.7500
 Warning: no grid points on interval from    -117.7175     33.7500 to    -117.7200     33.7500
 Warning: no grid points on interval from    -117.7200     33.7500 to    -117.7225     33.7500
 Warning: no grid points on interval from    -117.7225     33.7500 to    -117.7250     33.7500
 Warning: no grid points on interval from    -117.7250     33.7500 to    -117.7275     33.7500
 Warning: no grid points on interval from    -117.7275     33.7500 to    -117.7300     33.7500
 Warning: no grid points on interval from    -117.7300     33.7500 to    -117.7325     33.7500
 Warning: no grid points on interval from    -117.7325     33.7500 to    -117.7350     33.7500
 Warning: no grid points on interval from    -117.7350     33.7500 to    -117.7375     33.7500
 Warning: no grid points on interval from    -117.7375     33.7500 to    -117.7400     33.7500
 Warning: no grid points on interval from    -117.7400     33.7500 to    -117.7425     33.7500
 Warning: no grid points on interval from    -117.7425     33.7500 to    -117.7450     33.7500
 Warning: no grid points on interval from    -117.7450     33.7500 to    -117.7475     33.7500
 Warning: no grid points on interval from    -117.7475     33.7500 to    -117.7500     33.7500
 Warning: no grid points on interval from    -117.7500     33.7500 to    -117.7525     33.7500
 Warning: no grid points on interval from    -117.7525     33.7500 to    -117.7550     33.7500
 Warning: no grid points on interval from    -117.7550     33.7500 to    -117.7575     33.7500
 Warning: no grid points on interval from    -117.7575     33.7500 to    -117.7600     33.7500
 Warning: no grid points on interval from    -117.7600     33.7500 to    -117.7625     33.7500
 Warning: no grid points on interval from    -117.7625     33.7500 to    -117.7650     33.7500
 Warning: no grid points on interval from    -117.7650     33.7500 to    -117.7675     33.7500
 Warning: no grid points on interval from    -117.7675     33.7500 to    -117.7700     33.7500
 Warning: no grid points on interval from    -117.7700     33.7500 to    -117.7725     33.7500
 Warning: no grid points on interval from    -117.7725     33.7500 to    -117.7750     33.7500
 Warning: no grid points on interval from    -117.7750     33.7500 to    -117.7775     33.7500
 Warning: no grid points on interval from    -117.7775     33.7500 to    -117.7800     33.7500
 Warning: no grid points on interval from    -117.7800     33.7500 to    -117.7825     33.7500
 Warning: no grid points on interval from    -117.7825     33.7500 to    -117.7850     33.7500
 Warning: no grid points on interval from    -117.7850     33.7500 to    -117.7875     33.7500
 Warning: no grid points on interval from    -117.7875     33.7500 to    -117.7900     33.7500
 Warning: no grid points on interval from    -117.7900     33.7500 to    -117.7925     33.7500
 Warning: no grid points on interval from    -117.7925     33.7500 to    -117.7950     33.7500
 Warning: no grid points on interval from    -117.7950     33.7500 to    -117.7975     33.7500
 Warning: no grid points on interval from    -117.7975     33.7500 to    -117.8000     33.7500
 Warning: no grid points on interval from    -117.8000     33.7500 to    -117.8025     33.7500
 Warning: no grid points on interval from    -117.8025     33.7500 to    -117.8050     33.7500
 Warning: no grid points on interval from    -117.8050     33.7500 to    -117.8075     33.7500
 Warning: no grid points on interval from    -117.8075     33.7500 to    -117.8100     33.7500
 Warning: no grid points on interval from    -117.8100     33.7500 to    -117.8125     33.7500
 Warning: no grid points on interval from    -117.8125     33.7500 to    -117.8150     33.7500
 Warning: no grid points on interval from    -117.8150     33.7500 to    -117.8175     33.7500
 Warning: no grid points on interval from    -117.8175     33.7500 to    -117.8200     33.7500
 Warning: no grid points on interval from    -117.8200     33.7500 to    -117.8225     33.7500
 Warning: no grid points on interval from    -117.8225     33.7500 to    -117.8250     33.7500
 Warning: no grid points on interval from    -117.8250     33.7500 to    -117.8275     33.7500
 Warning: no grid points on interval from    -117.8275     33.7500 to    -117.8300     33.7500
 Warning: no grid points on interval from    -117.8300     33.7500 to    -117.8325     33.7500
 Warning: no grid points on interval from    -117.8325     33.7500 to    -117.8350     33.7500
 Warning: no grid points on interval from    -117.8350     33.7500 to    -117.8375     33.7500
 Warning: no grid points on interval from    -117.8375     33.7500 to    -117.8400     33.7500
 Warning: no grid points on interval from    -117.8400     33.7500 to    -117.8425     33.7500
 Warning: no grid points on interval from    -117.8425     33.7500 to    -117.8450     33.7500
 Warning: no grid points on interval from    -117.8450     33.7500 to    -117.8475     33.7500
 Warning: no grid points on interval from    -117.8475     33.7500 to    -117.8500     33.7500
 Warning: no grid points on interval from    -117.8500     33.7500 to    -117.8525     33.7500
 Warning: no grid points on interval from    -117.8525     33.7500 to    -117.8550     33.7500
 Warning: no grid points on interval from    -117.8550     33.7500 to    -117.8575     33.7500
 Warning: no grid points on interval from    -117.8575     33.7500 to    -117.8600     33.7500
 Warning: no grid points on interval from    -117.8600     33.7500 to    -117.8625     33.7500
 Warning: no grid points on interval from    -117.8625     33.7500 to    -117.8650     33.7500
 Warning: no grid points on interval from    -117.8650     33.7500 to    -117.8675     33.7500
 Warning: no grid points on interval from    -117.8675     33.7500 to    -117.8700     33.7500
 Warning: no grid points on interval from    -117.8700     33.7500 to    -117.8725     33.7500
 Warning: no grid points on interval from    -117.8725     33.7500 to    -117.8750     33.7500
 Warning: no grid points on interval from    -117.8750     33.7500 to    -117.8775     33.7500
 Warning: no grid points on interval from    -117.8775     33.7500 to    -117.8800     33.7500
 Warning: no grid points on interval from    -117.8800     33.7500 to    -117.8825     33.7500
 Warning: no grid points on interval from    -117.8825     33.7500 to    -117.8850     33.7500
 Warning: no grid points on interval from    -117.8850     33.7500 to    -117.8875     33.7500
 Warning: no grid points on interval from    -117.8875     33.7500 to    -117.8900     33.7500
 Warning: no grid points on interval from    -117.8900     33.7500 to    -117.8925     33.7500
 Warning: no grid points on interval from    -117.8925     33.7500 to    -117.8950     33.7500
 Warning: no grid points on interval from    -117.8950     33.7500 to    -117.8975     33.7500
 Warning: no grid points on interval from    -117.8975     33.7500 to    -117.9000     33.7500
 Warning: no grid points on interval from    -117.9000     33.7500 to    -117.9025     33.7500
 Warning: no grid points on interval from    -117.9025     33.7500 to    -117.9050     33.7500
 Warning: no grid points on interval from    -117.9050     33.7500 to    -117.9075     33.7500
 Warning: no grid points on interval from    -117.9075     33.7500 to    -117.9100     33.7500
 Warning: no grid points on interval from    -117.9100     33.7500 to    -117.9125     33.7500
 Warning: no grid points on interval from    -117.9125     33.7500 to    -117.9150     33.7500
 Warning: no grid points on interval from    -117.9150     33.7500 to    -117.9175     33.7500
 Warning: no grid points on interval from    -117.9175     33.7500 to    -117.9200     33.7500
 Warning: no grid points on interval from    -117.9200     33.7500 to    -117.9225     33.7500
 Warning: no grid points on interval from    -117.9225     33.7500 to    -117.9250     33.7500
 Warning: no grid points on interval from    -117.9250     33.7500 to    -117.9275     33.7500
 Warning: no grid points on interval from    -117.9275     33.7500 to    -117.9300     33.7500
 Warning: no grid points on interval from    -117.9300     33.7500 to    -117.9325     33.7500
 Warning: no grid points on interval from    -117.9325     33.7500 to    -117.9350     33.7500
 Warning: no grid points on interval from    -117.9350     33.7500 to    -117.9375     33.7500
 Warning: no grid points on interval from    -117.9375     33.7500 to    -117.9400     33.7500
 Warning: no grid points on interval from    -117.9400     33.7500 to    -117.9425     33.7500
 Warning: no grid points on interval from    -117.9425     33.7500 to    -117.9450     33.7500
 Warning: no grid points on interval from    -117.9450     33.7500 to    -117.9475     33.7500
 Warning: no grid points on interval from    -117.9475     33.7500 to    -117.9500     33.7500
 Warning: no grid points on interval from    -117.9500     33.7500 to    -117.9525     33.7500
 Warning: no grid points on interval from    -117.9525     33.7500 to    -117.9550     33.7500
 Warning: no grid points on interval from    -117.9550     33.7500 to    -117.9575     33.7500
 Warning: no grid points on interval from    -117.9575     33.7500 to    -117.9600     33.7500
 Warning: no grid points on interval from    -117.9600     33.7500 to    -117.9625     33.7500
 Warning: no grid points on interval from    -117.9625     33.7500 to    -117.9650     33.7500
 Warning: no grid points on interval from    -117.9650     33.7500 to    -117.9675     33.7500
 Warning: no grid points on interval from    -117.9675     33.7500 to    -117.9700     33.7500
 Warning: no grid points on interval from    -117.9700     33.7500 to    -117.9725     33.7500
 Warning: no grid points on interval from    -117.9725     33.7500 to    -117.9750     33.7500
 Warning: no grid points on interval from    -117.9750     33.7500 to    -117.9775     33.7500
 Warning: no grid points on interval from    -117.9775     33.7500 to    -117.9800     33.7500
 Warning: no grid points on interval from    -117.9800     33.7500 to    -117.9825     33.7500
 Warning: no grid points on interval from    -117.9825     33.7500 to    -117.9850     33.7500
 Warning: no grid points on interval from    -117.9850     33.7500 to    -117.9875     33.7500
 Warning: no grid points on interval from    -117.9875     33.7500 to    -117.9900     33.7500
 Warning: no grid points on interval from    -117.9900     33.7500 to    -117.9925     33.7500
 Warning: no grid points on interval from    -117.9925     33.7500 to    -117.9950     33.7500
 Warning: no grid points on interval from    -117.9950     33.7500 to    -117.9975     33.7500
 Warning: no grid points on interval from    -117.9975     33.7500 to    -118.0000     33.7500
 Warning: no grid points on interval from    -118.0000     33.7500 to    -118.0025     33.7500
 Warning: no grid points on interval from    -118.0025     33.7500 to    -118.0050     33.7500
 Warning: no grid points on interval from    -118.0050     33.7500 to    -118.0075     33.7500
 Warning: no grid points on interval from    -118.0075     33.7500 to    -118.0100     33.7500
 Warning: no grid points on interval from    -118.0100     33.7500 to    -118.0125     33.7500
 Warning: no grid points on interval from    -118.0125     33.7500 to    -118.0150     33.7500
 Warning: no grid points on interval from    -118.0150     33.7500 to    -118.0175     33.7500
 Warning: no grid points on interval from    -118.0175     33.7500 to    -118.0200     33.7500
 Warning: no grid points on interval from    -118.0200     33.7500 to    -118.0225     33.7500
 Warning: no grid points on interval from    -118.0225     33.7500 to    -118.0250     33.7500
 Warning: no grid points on interval from    -118.0250     33.7500 to    -118.0275     33.7500
 Warning: no grid points on interval from    -118.0275     33.7500 to    -118.0300     33.7500
 Warning: no grid points on interval from    -118.0300     33.7500 to    -118.0325     33.7500
 Warning: no grid points on interval from    -118.0325     33.7500 to    -118.0350     33.7500
 Warning: no grid points on interval from    -118.0350     33.7500 to    -118.0375     33.7500
 Warning: no grid points on interval from    -118.0375     33.7500 to    -118.0400     33.7500
 Warning: no grid points on interval from    -118.0400     33.7500 to    -118.0425     33.7500
 Warning: no grid points on interval from    -118.0425     33.7500 to    -118.0450     33.7500
 Warning: no grid points on interval from    -118.0450     33.7500 to    -118.0475     33.7500
 Warning: no grid points on interval from    -118.0475     33.7500 to    -118.0500     33.7500
 Warning: no grid points on interval from    -118.0500     33.7500 to    -118.0525     33.7500
 Warning: no grid points on interval from    -118.0525     33.7500 to    -118.0550     33.7500
 Warning: no grid points on interval from    -118.0550     33.7500 to    -118.0575     33.7500
 Warning: no grid points on interval from    -118.0575     33.7500 to    -118.0600     33.7500
 Warning: no grid points on interval from    -118.0600     33.7500 to    -118.0625     33.7500
 Warning: no grid points on interval from    -118.0625     33.7500 to    -118.0650     33.7500
 Warning: no grid points on interval from    -118.0650     33.7500 to    -118.0675     33.7500
 Warning: no grid points on interval from    -118.0675     33.7500 to    -118.0700     33.7500
 Warning: no grid points on interval from    -118.0700     33.7500 to    -118.0725     33.7500
 Warning: no grid points on interval from    -118.0725     33.7500 to    -118.0750     33.7500
 Warning: no grid points on interval from    -118.0750     33.7500 to    -118.0775     33.7500
 Warning: no grid points on interval from    -118.0775     33.7500 to    -118.0800     33.7500
 Warning: no grid points on interval from    -118.0800     33.7500 to    -118.0825     33.7500
 Warning: no grid points on interval from    -118.0825     33.7500 to    -118.0850     33.7500
 Warning: no grid points on interval from    -118.0850     33.7500 to    -118.0875     33.7500
 Warning: no grid points on interval from    -118.0875     33.7500 to    -118.0900     33.7500
 Warning: no grid points on interval from    -118.0900     33.7500 to    -118.0925     33.7500
 Warning: no grid points on interval from    -118.0925     33.7500 to    -118.0950     33.7500
 Warning: no grid points on interval from    -118.0950     33.7500 to    -118.0975     33.7500
 Warning: no grid points on interval from    -118.0975     33.7500 to    -118.1000     33.7500
 Warning: no grid points on interval from    -118.1000     33.7500 to    -118.1025     33.7500
 Warning: no grid points on interval from    -118.1025     33.7500 to    -118.1050     33.7500
 Warning: no grid points on interval from    -118.1050     33.7500 to    -118.1075     33.7500
 Warning: no grid points on interval from    -118.1075     33.7500 to    -118.1100     33.7500
 Warning: no grid points on interval from    -118.1100     33.7500 to    -118.1125     33.7500
 Warning: no grid points on interval from    -118.1125     33.7500 to    -118.1150     33.7500
 Warning: no grid points on interval from    -118.1150     33.7500 to    -118.1175     33.7500
 Warning: no grid points on interval from    -118.1175     33.7500 to    -118.1200     33.7500
 Warning: no grid points on interval from    -118.1200     33.7500 to    -118.1225     33.7500
 Warning: no grid points on interval from    -118.1275     33.7500 to    -118.1300     33.7500
 Warning: no grid points on interval from    -118.1300     33.7500 to    -118.1325     33.7500
 Warning: no grid points on interval from    -118.1325     33.7500 to    -118.1350     33.7500
 Warning: no grid points on interval from    -118.1350     33.7500 to    -118.1375     33.7500
 Warning: no grid points on interval from    -118.1375     33.7500 to    -118.1400     33.7500
 Warning: no grid points on interval from    -118.1400     33.7500 to    -118.1425     33.7500
 Warning: no grid points on interval from    -118.1425     33.7500 to    -118.1450     33.7500
 Warning: no grid points on interval from    -118.1450     33.7500 to    -118.1475     33.7500
 Warning: no grid points on interval from    -118.1525     33.7500 to    -118.1550     33.7500
 Warning: no grid points on interval from    -118.1550     33.7500 to    -118.1575     33.7500
 Warning: no grid points on interval from    -118.1575     33.7500 to    -118.1600     33.7500
 Warning: no grid points on interval from    -118.1600     33.7500 to    -118.1625     33.7500
 Warning: no grid points on interval from    -118.1625     33.7500 to    -118.1650     33.7500
 Warning: no grid points on interval from    -118.1650     33.7500 to    -118.1675     33.7500
 Warning: no grid points on interval from    -118.1675     33.7500 to    -118.1700     33.7500
 Warning: no grid points on interval from    -118.1700     33.7500 to    -118.1725     33.7500
 Warning: no grid points on interval from    -118.1775     33.7500 to    -118.1800     33.7500
 Warning: no grid points on interval from    -118.1800     33.7500 to    -118.1825     33.7500
 Warning: no grid points on interval from    -118.1825     33.7500 to    -118.1850     33.7500
 Warning: no grid points on interval from    -118.1850     33.7500 to    -118.1875     33.7500
 Warning: no grid points on interval from    -118.1875     33.7500 to    -118.1900     33.7500
 Warning: no grid points on interval from    -118.1900     33.7500 to    -118.1925     33.7500
 Warning: no grid points on interval from    -118.1925     33.7500 to    -118.1950     33.7500
 Warning: no grid points on interval from    -118.1950     33.7500 to    -118.1975     33.7500
 Warning: no grid points on interval from    -118.1975     33.7500 to    -118.2000     33.7500
 Warning: no grid points on interval from    -118.2000     33.7500 to    -118.2025     33.7500
 Warning: no grid points on interval from    -118.2025     33.7500 to    -118.2050     33.7500
 Warning: no grid points on interval from    -118.2050     33.7500 to    -118.2075     33.7500
 Warning: no grid points on interval from    -118.2075     33.7500 to    -118.2100     33.7500
 Warning: no grid points on interval from    -118.2100     33.7500 to    -118.2125     33.7500
 Warning: no grid points on interval from    -118.2125     33.7500 to    -118.2150     33.7500
 Warning: no grid points on interval from    -118.2150     33.7500 to    -118.2175     33.7500
 Warning: no grid points on interval from    -118.2175     33.7500 to    -118.2200     33.7500
 Warning: no grid points on interval from    -118.2200     33.7500 to    -118.2225     33.7500
 Warning: no grid points on interval from    -118.2275     33.7500 to    -118.2300     33.7500
 Warning: no grid points on interval from    -118.2300     33.7500 to    -118.2325     33.7500
 Warning: no grid points on interval from    -118.2325     33.7500 to    -118.2350     33.7500
 Warning: no grid points on interval from    -118.2350     33.7500 to    -118.2375     33.7500
 Warning: no grid points on interval from    -118.2375     33.7500 to    -118.2400     33.7500
 Warning: no grid points on interval from    -118.2400     33.7500 to    -118.2425     33.7500
 Warning: no grid points on interval from    -118.2425     33.7500 to    -118.2450     33.7500
 Warning: no grid points on interval from    -118.2450     33.7500 to    -118.2475     33.7500
 Warning: no grid points on interval from    -118.2525     33.7500 to    -118.2550     33.7500
 Warning: no grid points on interval from    -118.2550     33.7500 to    -118.2575     33.7500
 Warning: no grid points on interval from    -118.2575     33.7500 to    -118.2600     33.7500
 Warning: no grid points on interval from    -118.2600     33.7500 to    -118.2625     33.7500
 Warning: no grid points on interval from    -118.2625     33.7500 to    -118.2650     33.7500
 Warning: no grid points on interval from    -118.2650     33.7500 to    -118.2675     33.7500
 Warning: no grid points on interval from    -118.2675     33.7500 to    -118.2700     33.7500
 Warning: no grid points on interval from    -118.2700     33.7500 to    -118.2725     33.7500
 Warning: no grid points on interval from    -118.2725     33.7500 to    -118.2750     33.7500
 Warning: no grid points on interval from    -118.2750     33.7500 to    -118.2775     33.7500
 Warning: no grid points on interval from    -118.2775     33.7500 to    -118.2800     33.7500
 Warning: no grid points on interval from    -118.2800     33.7500 to    -118.2825     33.7500
 Warning: no grid points on interval from    -118.2825     33.7500 to    -118.2850     33.7500
 Warning: no grid points on interval from    -118.2850     33.7500 to    -118.2875     33.7500
 Warning: no grid points on interval from    -118.2875     33.7500 to    -118.2900     33.7500
 Warning: no grid points on interval from    -118.2900     33.7500 to    -118.2925     33.7500
 Warning: no grid points on interval from    -118.2925     33.7500 to    -118.2950     33.7500
 Warning: no grid points on interval from    -118.2950     33.7500 to    -118.2975     33.7500
 Warning: no grid points on interval from    -118.2975     33.7500 to    -118.3000     33.7500
[...]
 Warning: no grid points on interval from    -118.5000     33.6425 to    -118.5000     33.6400
 Warning: no grid points on interval from    -118.5000     33.6400 to    -118.5000     33.6375
 Warning: no grid points on interval from    -118.5000     33.6375 to    -118.5000     33.6350
 Warning: no grid points on interval from    -118.5000     33.6350 to    -118.5000     33.6325
 Warning: no grid points on interval from    -118.5000     33.6325 to    -118.5000     33.6300
 Warning: no grid points on interval from    -118.5000     33.6300 to    -118.5000     33.6275
 Warning: no grid points on interval from    -118.5000     33.6225 to    -118.5000     33.6200
 Warning: no grid points on interval from    -118.5000     33.6200 to    -118.5000     33.6175
 Warning: no grid points on interval from    -118.5000     33.6175 to    -118.5000     33.6150
 Warning: no grid points on interval from    -118.5000     33.6150 to    -118.5000     33.6125
 Warning: no grid points on interval from    -118.5000     33.6125 to    -118.5000     33.6100
 Warning: no grid points on interval from    -118.5000     33.6100 to    -118.5000     33.6075
 Warning: no grid points on interval from    -118.5000     33.6075 to    -118.5000     33.6050
 Warning: no grid points on interval from    -118.5000     33.6050 to    -118.5000     33.6025
 Warning: no grid points on interval from    -118.5000     33.5975 to    -118.5000     33.5950
 Warning: no grid points on interval from    -118.5000     33.5950 to    -118.5000     33.5925
 Warning: no grid points on interval from    -118.5000     33.5925 to    -118.5000     33.5900
 Warning: no grid points on interval from    -118.5000     33.5900 to    -118.5000     33.5875
 Warning: no grid points on interval from    -118.5000     33.5875 to    -118.5000     33.5850
 Warning: no grid points on interval from    -118.5000     33.5850 to    -118.5000     33.5825
 Warning: no grid points on interval from    -118.5000     33.5825 to    -118.5000     33.5800
 Warning: no grid points on interval from    -118.5000     33.5800 to    -118.5000     33.5775
 Warning: no grid points on interval from    -118.5000     33.5725 to    -118.5000     33.5700
 Warning: no grid points on interval from    -118.5000     33.5700 to    -118.5000     33.5675
 Warning: no grid points on interval from    -118.5000     33.5675 to    -118.5000     33.5650
 Warning: no grid points on interval from    -118.5000     33.5650 to    -118.5000     33.5625
 Warning: no grid points on interval from    -118.5000     33.5625 to    -118.5000     33.5600
 Warning: no grid points on interval from    -118.5000     33.5600 to    -118.5000     33.5575
 Warning: no grid points on interval from    -118.5000     33.5575 to    -118.5000     33.5550
 Warning: no grid points on interval from    -118.5000     33.5550 to    -118.5000     33.5525
 Warning: no grid points on interval from    -118.5000     33.5475 to    -118.5000     33.5450
 Warning: no grid points on interval from    -118.5000     33.5450 to    -118.5000     33.5425
 Warning: no grid points on interval from    -118.5000     33.5425 to    -118.5000     33.5400
 Warning: no grid points on interval from    -118.5000     33.5400 to    -118.5000     33.5375
 Warning: no grid points on interval from    -118.5000     33.5375 to    -118.5000     33.5350
 Warning: no grid points on interval from    -118.5000     33.5350 to    -118.5000     33.5325
 Warning: no grid points on interval from    -118.5000     33.5325 to    -118.5000     33.5300
 Warning: no grid points on interval from    -118.5000     33.5300 to    -118.5000     33.5275
 Warning: no grid points on interval from    -118.5000     33.5225 to    -118.5000     33.5200
 Warning: no grid points on interval from    -118.5000     33.5200 to    -118.5000     33.5175
 Warning: no grid points on interval from    -118.5000     33.5175 to    -118.5000     33.5150
 Warning: no grid points on interval from    -118.5000     33.5150 to    -118.5000     33.5125
 Warning: no grid points on interval from    -118.5000     33.5125 to    -118.5000     33.5100
 Warning: no grid points on interval from    -118.5000     33.5100 to    -118.5000     33.5075
 Warning: no grid points on interval from    -118.5000     33.5075 to    -118.5000     33.5050
 Warning: no grid points on interval from    -118.5000     33.5050 to    -118.5000     33.5025
 Warning: no grid points on interval from    -118.5000     33.4975 to    -118.5000     33.4950
 Warning: no grid points on interval from    -118.5000     33.4950 to    -118.5000     33.4925
 Warning: no grid points on interval from    -118.5000     33.4925 to    -118.5000     33.4900
 Warning: no grid points on interval from    -118.5000     33.4900 to    -118.5000     33.4875
 Warning: no grid points on interval from    -118.5000     33.4875 to    -118.5000     33.4850
 Warning: no grid points on interval from    -118.5000     33.4850 to    -118.5000     33.4825
 Warning: no grid points on interval from    -118.5000     33.4825 to    -118.5000     33.4800
 Warning: no grid points on interval from    -118.5000     33.4800 to    -118.5000     33.4775
 Warning: no grid points on interval from    -118.5000     33.4725 to    -118.5000     33.4700
 Warning: no grid points on interval from    -118.5000     33.4700 to    -118.5000     33.4675
 Warning: no grid points on interval from    -118.5000     33.4675 to    -118.5000     33.4650
 Warning: no grid points on interval from    -118.5000     33.4650 to    -118.5000     33.4625
 Warning: no grid points on interval from    -118.5000     33.4625 to    -118.5000     33.4600
 Warning: no grid points on interval from    -118.5000     33.4600 to    -118.5000     33.4575
 Warning: no grid points on interval from    -118.5000     33.4575 to    -118.5000     33.4550
 Warning: no grid points on interval from    -118.5000     33.4550 to    -118.5000     33.4525
 Warning: no grid points on interval from    -118.5000     33.4475 to    -118.5000     33.4450
 Warning: no grid points on interval from    -118.5000     33.4450 to    -118.5000     33.4425
 Warning: no grid points on interval from    -118.5000     33.4425 to    -118.5000     33.4400
 Warning: no grid points on interval from    -118.5000     33.4400 to    -118.5000     33.4375
 Warning: no grid points on interval from    -118.5000     33.4375 to    -118.5000     33.4350
 Warning: no grid points on interval from    -118.5000     33.4350 to    -118.5000     33.4325
 Warning: no grid points on interval from    -118.5000     33.4325 to    -118.5000     33.4300
 Warning: no grid points on interval from    -118.5000     33.4300 to    -118.5000     33.4275
 Warning: no grid points on interval from    -118.5000     33.4275 to    -118.5000     33.4250
 Warning: no grid points on interval from    -118.5000     33.4250 to    -118.5000     33.4225
 Warning: no grid points on interval from    -118.5000     33.4225 to    -118.5000     33.4200
 Warning: no grid points on interval from    -118.5000     33.4200 to    -118.5000     33.4175
 Warning: no grid points on interval from    -118.5000     33.4175 to    -118.5000     33.4150
 Warning: no grid points on interval from    -118.5000     33.4150 to    -118.5000     33.4125
 Warning: no grid points on interval from    -118.5000     33.4125 to    -118.5000     33.4100
 Warning: no grid points on interval from    -118.5000     33.4100 to    -118.5000     33.4075
 Warning: no grid points on interval from    -118.5000     33.4075 to    -118.5000     33.4050
 Warning: no grid points on interval from    -118.5000     33.4050 to    -118.5000     33.4025
 Warning: no grid points on interval from    -118.5000     33.4025 to    -118.5000     33.4000
 Warning: no grid points on interval from    -118.5000     33.4000 to    -118.5000     33.3975
 Warning: no grid points on interval from    -118.5000     33.3975 to    -118.5000     33.3950
 Warning: no grid points on interval from    -118.5000     33.3950 to    -118.5000     33.3925
 Warning: no grid points on interval from    -118.5000     33.3925 to    -118.5000     33.3900
 Warning: no grid points on interval from    -118.5000     33.3900 to    -118.5000     33.3875
 Warning: no grid points on interval from    -118.5000     33.3875 to    -118.5000     33.3850
 Warning: no grid points on interval from    -118.5000     33.3850 to    -118.5000     33.3825
 Warning: no grid points on interval from    -118.5000     33.3825 to    -118.5000     33.3800
 Warning: no grid points on interval from    -118.5000     33.3800 to    -118.5000     33.3775
 Warning: no grid points on interval from    -118.5000     33.3775 to    -118.5000     33.3750
 Warning: no grid points on interval from    -118.5000     33.3750 to    -118.5000     33.3725
 Warning: no grid points on interval from    -118.5000     33.3725 to    -118.5000     33.3700
 Warning: no grid points on interval from    -118.5000     33.3700 to    -118.5000     33.3675
 Warning: no grid points on interval from    -118.5000     33.3675 to    -118.5000     33.3650
 Warning: no grid points on interval from    -118.5000     33.3650 to    -118.5000     33.3625
 Warning: no grid points on interval from    -118.5000     33.3625 to    -118.5000     33.3600
 Warning: no grid points on interval from    -118.5000     33.3600 to    -118.5000     33.3575
 Warning: no grid points on interval from    -118.5000     33.3575 to    -118.5000     33.3550
 Warning: no grid points on interval from    -118.5000     33.3550 to    -118.5000     33.3525
 Warning: no grid points on interval from    -118.5000     33.3525 to    -118.5000     33.3500
 Warning: no grid points on interval from    -118.5000     33.3500 to    -118.5000     33.3475
 Warning: no grid points on interval from    -118.5000     33.3475 to    -118.5000     33.3450
 Warning: no grid points on interval from    -118.5000     33.3450 to    -118.5000     33.3425
 Warning: no grid points on interval from    -118.5000     33.3425 to    -118.5000     33.3400
 Warning: no grid points on interval from    -118.5000     33.3400 to    -118.5000     33.3375
 Warning: no grid points on interval from    -118.5000     33.3375 to    -118.5000     33.3350
 Warning: no grid points on interval from    -118.5000     33.3350 to    -118.5000     33.3325
 Warning: no grid points on interval from    -118.5000     33.3325 to    -118.5000     33.3300
 Warning: no grid points on interval from    -118.5000     33.3300 to    -118.5000     33.3275
 Warning: no grid points on interval from    -118.5000     33.3225 to    -118.5000     33.3200
 Warning: no grid points on interval from    -118.5000     33.3200 to    -118.5000     33.3175
 Warning: no grid points on interval from    -118.5000     33.3175 to    -118.5000     33.3150
 Warning: no grid points on interval from    -118.5000     33.3150 to    -118.5000     33.3125
 Warning: no grid points on interval from    -118.5000     33.3125 to    -118.5000     33.3100
 Warning: no grid points on interval from    -118.5000     33.3100 to    -118.5000     33.3075
 Warning: no grid points on interval from    -118.5000     33.3075 to    -118.5000     33.3050
 Warning: no grid points on interval from    -118.5000     33.3050 to    -118.5000     33.3025
 Warning: no grid points on interval from    -118.5000     33.2975 to    -118.5000     33.2950
 Warning: no grid points on interval from    -118.5000     33.2950 to    -118.5000     33.2925
 Warning: no grid points on interval from    -118.5000     33.2925 to    -118.5000     33.2900
 Warning: no grid points on interval from    -118.5000     33.2900 to    -118.5000     33.2875
 Warning: no grid points on interval from    -118.5000     33.2875 to    -118.5000     33.2850
 Warning: no grid points on interval from    -118.5000     33.2850 to    -118.5000     33.2825
 Warning: no grid points on interval from    -118.5000     33.2825 to    -118.5000     33.2800
 Warning: no grid points on interval from    -118.5000     33.2800 to    -118.5000     33.2775
 Warning: no grid points on interval from    -118.5000     33.2725 to    -118.5000     33.2700
 Warning: no grid points on interval from    -118.5000     33.2700 to    -118.5000     33.2675
 Warning: no grid points on interval from    -118.5000     33.2675 to    -118.5000     33.2650
 Warning: no grid points on interval from    -118.5000     33.2650 to    -118.5000     33.2625
 Warning: no grid points on interval from    -118.5000     33.2625 to    -118.5000     33.2600
 Warning: no grid points on interval from    -118.5000     33.2600 to    -118.5000     33.2575
 Warning: no grid points on interval from    -118.5000     33.2575 to    -118.5000     33.2550
 Warning: no grid points on interval from    -118.5000     33.2550 to    -118.5000     33.2525
    
 !
    
 GEN3
    
 !
    
 !***********************************************************
    
 !
    
 !generate binary Matlab-file for block-output
    
 BLOCK  'COMPGRID' NOHEAD 'HsOC.txt' LAYOUT 3 HS
    
 BLOCK  'COMPGRID' NOHEAD 'DirOC.txt' LAYOUT 3 DIR
    
 !
    
 TEST 1,0
    
 COMPUTE

----------------------------------------------------------------
                  COMPUTATIONAL PART OF SWAN
----------------------------------------------------------------

 Gridresolution       : MXC              41 MYC             21
                      : MCGRD           594
                      : MSC              32 MDC             36
                      : MTC               1
                      : NSTATC            0 ITERMX          50
 Propagation flags    : ITFRE             1 IREFR            1
 Source term flags    : IBOT              0 ISURF            1
                      : IWCAP             1 IWIND            3
                      : ITRIAD            0 IQUAD            2
                      : IVEG              0 ITURBV           0
                      : IMUD              0
 Spatial step         : DX       0.2500E-01 DY      0.2500E-01
 Spectral bin         : df/f     0.1000E+00 DDIR    0.1000E+02
 Physical constants   : GRAV     0.9810E+01 RHO     0.1025E+04
 Wind input           : WSPEED   0.1000E+01 DIR     0.1800E+03
 Tail parameters      : E(f)     0.4000E+01 E(k)    0.2500E+01
                      : A(f)     0.5000E+01 A(k)    0.3000E+01
 Accuracy parameters  : DREL     0.1000E-01 NPNTS   0.9950E+02
                      : DHABS    0.5000E-02 CURVAT  0.5000E-02
                      : GRWMX    0.1000E+00
 Drying/flooding      : LEVEL    0.0000E+00 DEPMIN  0.5000E-01
 The Cartesian convention for wind and wave directions is used
 Scheme for geographic propagation is SORDUP
 Scheme geogr. space  : PROPSC            2 ICMAX            5
 Scheme spectral space: CSS      0.5000E+00 CDD     0.5000E+00
 Current is off
 Quadruplets          : IQUAD             2
                      : LAMBDA   0.2500E+00 CNL4    0.3000E+08
                      : CSH1     0.5500E+01 CSH2    0.8330E+00
                      : CSH3    -0.1250E+01
 Maximum Ursell nr for Snl4 :    0.1000E+02
 Triads is off
 Bottom friction is off
 Vegetation is off
 Turbulence is off
 Fluid mud is off
 W-cap Komen (`84)    : EMPCOF   0.2360E-04 APM     0.3020E-02
                      : DELTA    0.1000E+01
 Battjes&Janssen (`78): ALPHA    0.1000E+01 GAMMA   0.7300E+00
 Set-up is off
 Diffraction is off
 Janssen (`89,`90)    : ALPHA    0.1000E-01 KAPPA   0.4100E+00
 Janssen (`89,`90)    : RHOA     0.1280E+01 RHOW    0.1025E+04

 1st and 2nd gen. wind: CF10     0.1880E+03 CF20    0.5900E+00
                      : CF30     0.1200E+00 CF40    0.2500E+03
                      : CF50     0.2300E-02 CF60   -0.2230E+00
                      : CF70     0.0000E+00 CF80   -0.5600E+00
                      : RHOAW    0.1249E-02 EDMLPM  0.3600E-02
                      : CDRAG    0.1230E-02 UMIN    0.1000E+01
                      : LIM_PM   0.1300E+00

  ---------------------------------------------------------------
  First guess by 2nd generation model flags for first iteration:
  ITER       1 GRWMX      0.1000E+23 ALFA       0.0000E+00
  IWIND      2 IWCAP      0 IQUAD      0
  ITRIAD     0 IBOT       0 ISURF      1
  IVEG       0 ITURBV     0 IMUD       0
  ---------------------------------------------------------------
 iteration    1; sweep 1
 iteration    1; sweep 2
 iteration    1; sweep 3
 iteration    1; sweep 4
 not possible to compute, first iteration

  ---------------------------------------------------------------
  Options given by user are activated for proceeding calculation:
  ITER       2 GRWMX      0.1000E+00 ALFA       0.0000E+00
  IWIND      3 IWCAP      1 IQUAD      2
  ITRIAD     0 IBOT       0 ISURF      1
  IVEG       0 ITURBV     0 IMUD       0
  ---------------------------------------------------------------
 iteration    2; sweep 1
 iteration    2; sweep 2
 iteration    2; sweep 3
 iteration    2; sweep 4
 accuracy OK in  86.25 % of wet grid points ( 99.50 % required)

 iteration    3; sweep 1
 iteration    3; sweep 2
 iteration    3; sweep 3
 iteration    3; sweep 4
 accuracy OK in   3.40 % of wet grid points ( 99.50 % required)

 iteration    4; sweep 1
 iteration    4; sweep 2
 iteration    4; sweep 3
 iteration    4; sweep 4
 accuracy OK in  97.28 % of wet grid points ( 99.50 % required)

 iteration    5; sweep 1
 iteration    5; sweep 2
 iteration    5; sweep 3
 iteration    5; sweep 4
 accuracy OK in  99.15 % of wet grid points ( 99.50 % required)

 iteration    6; sweep 1
 iteration    6; sweep 2
 iteration    6; sweep 3
 iteration    6; sweep 4
 accuracy OK in  99.83 % of wet grid points ( 99.50 % required)

  ** WARNING : Differences in wave height at the boundary
 Relative difference between input and computation >=   0.10
                         Hs[m]      Hs[m]      Hs[-]
     ix    iy  index   (input) (computed) (relative)
  --------------------------------------------------
    11    21    193       0.20       0.00       1.00
    12    21    214       0.20       0.05       0.76
    16    21    297       0.19       0.00       1.00
     5     1     68       0.40       0.45       0.13
     6     1     84       0.36       0.43       0.22
     7     1    100       0.30       0.42       0.42
     8     1    118       0.23       0.39       0.73
     9     1    135       0.21       0.36       0.69
    10     1    154       0.20       0.33       0.63
    11     1    173       0.19       0.30       0.58
    12     1    194       0.18       0.28       0.53
    13     1    215       0.17       0.26       0.49
    14     1    235       0.17       0.24       0.46
    15     1    256       0.16       0.23       0.40
    16     1    277       0.17       0.22       0.35
    17     1    298       0.17       0.22       0.30
    18     1    318       0.17       0.21       0.26
    19     1    338       0.17       0.21       0.23
    20     1    357       0.17       0.21       0.21
    21     1    374       0.17       0.20       0.19
    22     1    391       0.17       0.20       0.17
    23     1    407       0.17       0.20       0.16
    24     1    422       0.17       0.20       0.15
    25     1    437       0.18       0.20       0.15
    26     1    451       0.18       0.20       0.15
    27     1    465       0.18       0.21       0.16
    28     1    479       0.18       0.21       0.16
    29     1    492       0.18       0.21       0.17
    30     1    504       0.18       0.21       0.18
    31     1    516       0.18       0.21       0.19
    32     1    527       0.18       0.22       0.20
    33     1    537       0.18       0.22       0.21
    34     1    546       0.18       0.22       0.21
    35     1    555       0.18       0.22       0.21
    36     1    563       0.19       0.23       0.21
    37     1    570       0.19       0.23       0.21
    38     1    576       0.19       0.23       0.20
    39     1    582       0.20       0.24       0.19
    40     1    587       0.20       0.24       0.18
    41     1    591       0.21       0.25       0.17

    
 STOP
