1

                    Execution started at 20160815.185517         



                    ---------------------------------------
                                     SWAN
                    SIMULATION OF WAVES IN NEAR SHORE AREAS
                             VERSION NUMBER 41.01               
                    ---------------------------------------


    
 !*************************HEADING************************
    
 !
    
 PROJ 'SB' ''
    
 !
    
 !Santa Barbara swell chart.
    
 !
    
 !Data: Nested from Southern California
    
 !
    
 !no wind data
    
 !********************MODEL INPUT*************************
    
 !
    
 ! SET INRHOG 1
    
 !
    
 !COORDINATES SPHE
    
 !
    
 !
    
 CGRID -120.5   33.75   0. 1.5 .75 60 30 CIRCLE 36 0.0521 1. 31
 Resolution in sigma-space: df/f =  0.1000
    
 !
    
 INPGRID BOTTOM -121 32 0. 4799 3599 .0008333333333 .0008333333333 EXC -99.
    
 !
    
 READINP BOTTOM 1. 'SoCal_high.txt' 1 0 FREE
 ** Warning          : Point removed from computational grid
Point with index (     1,    30) was removed from computational grid, because it is part of a 1D configuration or 1D connection.
 ** Warning          : Point removed from computational grid
Point with index (     1,    31) was removed from computational grid, because it is part of a 1D configuration or 1D connection.
    
 !
    
 !
    
 BOU SHAP JON 3.3 PEAK DSPR DEGR
    
 !
    
 WIND 1.0 180
    
 !
    
 BOUNDNEST NEST 'nestSB' CLOSED
 Warning: no grid points on interval from    -120.4975     33.7500 to    -120.4950     33.7500
 Warning: no grid points on interval from    -120.4950     33.7500 to    -120.4925     33.7500
 Warning: no grid points on interval from    -120.4925     33.7500 to    -120.4900     33.7500
 Warning: no grid points on interval from    -120.4900     33.7500 to    -120.4875     33.7500
 Warning: no grid points on interval from    -120.4875     33.7500 to    -120.4850     33.7500
 Warning: no grid points on interval from    -120.4850     33.7500 to    -120.4825     33.7500
 Warning: no grid points on interval from    -120.4825     33.7500 to    -120.4800     33.7500
 Warning: no grid points on interval from    -120.4800     33.7500 to    -120.4775     33.7500
 Warning: no grid points on interval from    -120.4725     33.7500 to    -120.4700     33.7500
 Warning: no grid points on interval from    -120.4700     33.7500 to    -120.4675     33.7500
 Warning: no grid points on interval from    -120.4675     33.7500 to    -120.4650     33.7500
 Warning: no grid points on interval from    -120.4650     33.7500 to    -120.4625     33.7500
 Warning: no grid points on interval from    -120.4625     33.7500 to    -120.4600     33.7500
 Warning: no grid points on interval from    -120.4600     33.7500 to    -120.4575     33.7500
 Warning: no grid points on interval from    -120.4575     33.7500 to    -120.4550     33.7500
 Warning: no grid points on interval from    -120.4550     33.7500 to    -120.4525     33.7500
 Warning: no grid points on interval from    -120.4475     33.7500 to    -120.4450     33.7500
 Warning: no grid points on interval from    -120.4450     33.7500 to    -120.4425     33.7500
 Warning: no grid points on interval from    -120.4425     33.7500 to    -120.4400     33.7500
 Warning: no grid points on interval from    -120.4400     33.7500 to    -120.4375     33.7500
 Warning: no grid points on interval from    -120.4375     33.7500 to    -120.4350     33.7500
 Warning: no grid points on interval from    -120.4350     33.7500 to    -120.4325     33.7500
 Warning: no grid points on interval from    -120.4325     33.7500 to    -120.4300     33.7500
 Warning: no grid points on interval from    -120.4300     33.7500 to    -120.4275     33.7500
 Warning: no grid points on interval from    -120.4225     33.7500 to    -120.4200     33.7500
 Warning: no grid points on interval from    -120.4200     33.7500 to    -120.4175     33.7500
 Warning: no grid points on interval from    -120.4175     33.7500 to    -120.4150     33.7500
 Warning: no grid points on interval from    -120.4150     33.7500 to    -120.4125     33.7500
 Warning: no grid points on interval from    -120.4125     33.7500 to    -120.4100     33.7500
 Warning: no grid points on interval from    -120.4100     33.7500 to    -120.4075     33.7500
 Warning: no grid points on interval from    -120.4075     33.7500 to    -120.4050     33.7500
 Warning: no grid points on interval from    -120.4050     33.7500 to    -120.4025     33.7500
 Warning: no grid points on interval from    -120.3975     33.7500 to    -120.3950     33.7500
 Warning: no grid points on interval from    -120.3950     33.7500 to    -120.3925     33.7500
 Warning: no grid points on interval from    -120.3925     33.7500 to    -120.3900     33.7500
 Warning: no grid points on interval from    -120.3900     33.7500 to    -120.3875     33.7500
 Warning: no grid points on interval from    -120.3875     33.7500 to    -120.3850     33.7500
 Warning: no grid points on interval from    -120.3850     33.7500 to    -120.3825     33.7500
 Warning: no grid points on interval from    -120.3825     33.7500 to    -120.3800     33.7500
 Warning: no grid points on interval from    -120.3800     33.7500 to    -120.3775     33.7500
 Warning: no grid points on interval from    -120.3725     33.7500 to    -120.3700     33.7500
 Warning: no grid points on interval from    -120.3700     33.7500 to    -120.3675     33.7500
 Warning: no grid points on interval from    -120.3675     33.7500 to    -120.3650     33.7500
 Warning: no grid points on interval from    -120.3650     33.7500 to    -120.3625     33.7500
 Warning: no grid points on interval from    -120.3625     33.7500 to    -120.3600     33.7500
 Warning: no grid points on interval from    -120.3600     33.7500 to    -120.3575     33.7500
 Warning: no grid points on interval from    -120.3575     33.7500 to    -120.3550     33.7500
 Warning: no grid points on interval from    -120.3550     33.7500 to    -120.3525     33.7500
 Warning: no grid points on interval from    -120.3475     33.7500 to    -120.3450     33.7500
 Warning: no grid points on interval from    -120.3450     33.7500 to    -120.3425     33.7500
 Warning: no grid points on interval from    -120.3425     33.7500 to    -120.3400     33.7500
 Warning: no grid points on interval from    -120.3400     33.7500 to    -120.3375     33.7500
 Warning: no grid points on interval from    -120.3375     33.7500 to    -120.3350     33.7500
 Warning: no grid points on interval from    -120.3350     33.7500 to    -120.3325     33.7500
 Warning: no grid points on interval from    -120.3325     33.7500 to    -120.3300     33.7500
 Warning: no grid points on interval from    -120.3300     33.7500 to    -120.3275     33.7500
 Warning: no grid points on interval from    -120.3225     33.7500 to    -120.3200     33.7500
 Warning: no grid points on interval from    -120.3200     33.7500 to    -120.3175     33.7500
 Warning: no grid points on interval from    -120.3175     33.7500 to    -120.3150     33.7500
 Warning: no grid points on interval from    -120.3150     33.7500 to    -120.3125     33.7500
 Warning: no grid points on interval from    -120.3125     33.7500 to    -120.3100     33.7500
 Warning: no grid points on interval from    -120.3100     33.7500 to    -120.3075     33.7500
 Warning: no grid points on interval from    -120.3075     33.7500 to    -120.3050     33.7500
 Warning: no grid points on interval from    -120.3050     33.7500 to    -120.3025     33.7500
 Warning: no grid points on interval from    -120.2975     33.7500 to    -120.2950     33.7500
 Warning: no grid points on interval from    -120.2950     33.7500 to    -120.2925     33.7500
 Warning: no grid points on interval from    -120.2925     33.7500 to    -120.2900     33.7500
 Warning: no grid points on interval from    -120.2900     33.7500 to    -120.2875     33.7500
 Warning: no grid points on interval from    -120.2875     33.7500 to    -120.2850     33.7500
 Warning: no grid points on interval from    -120.2850     33.7500 to    -120.2825     33.7500
 Warning: no grid points on interval from    -120.2825     33.7500 to    -120.2800     33.7500
 Warning: no grid points on interval from    -120.2800     33.7500 to    -120.2775     33.7500
 Warning: no grid points on interval from    -120.2725     33.7500 to    -120.2700     33.7500
 Warning: no grid points on interval from    -120.2700     33.7500 to    -120.2675     33.7500
 Warning: no grid points on interval from    -120.2675     33.7500 to    -120.2650     33.7500
 Warning: no grid points on interval from    -120.2650     33.7500 to    -120.2625     33.7500
 Warning: no grid points on interval from    -120.2625     33.7500 to    -120.2600     33.7500
 Warning: no grid points on interval from    -120.2600     33.7500 to    -120.2575     33.7500
 Warning: no grid points on interval from    -120.2575     33.7500 to    -120.2550     33.7500
 Warning: no grid points on interval from    -120.2550     33.7500 to    -120.2525     33.7500
 Warning: no grid points on interval from    -120.2475     33.7500 to    -120.2450     33.7500
 Warning: no grid points on interval from    -120.2450     33.7500 to    -120.2425     33.7500
 Warning: no grid points on interval from    -120.2425     33.7500 to    -120.2400     33.7500
 Warning: no grid points on interval from    -120.2400     33.7500 to    -120.2375     33.7500
 Warning: no grid points on interval from    -120.2375     33.7500 to    -120.2350     33.7500
 Warning: no grid points on interval from    -120.2350     33.7500 to    -120.2325     33.7500
 Warning: no grid points on interval from    -120.2325     33.7500 to    -120.2300     33.7500
 Warning: no grid points on interval from    -120.2300     33.7500 to    -120.2275     33.7500
 Warning: no grid points on interval from    -120.2225     33.7500 to    -120.2200     33.7500
 Warning: no grid points on interval from    -120.2200     33.7500 to    -120.2175     33.7500
 Warning: no grid points on interval from    -120.2175     33.7500 to    -120.2150     33.7500
 Warning: no grid points on interval from    -120.2150     33.7500 to    -120.2125     33.7500
 Warning: no grid points on interval from    -120.2125     33.7500 to    -120.2100     33.7500
 Warning: no grid points on interval from    -120.2100     33.7500 to    -120.2075     33.7500
 Warning: no grid points on interval from    -120.2075     33.7500 to    -120.2050     33.7500
 Warning: no grid points on interval from    -120.2050     33.7500 to    -120.2025     33.7500
 Warning: no grid points on interval from    -120.1975     33.7500 to    -120.1950     33.7500
 Warning: no grid points on interval from    -120.1950     33.7500 to    -120.1925     33.7500
 Warning: no grid points on interval from    -120.1925     33.7500 to    -120.1900     33.7500
 Warning: no grid points on interval from    -120.1900     33.7500 to    -120.1875     33.7500
 Warning: no grid points on interval from    -120.1875     33.7500 to    -120.1850     33.7500
 Warning: no grid points on interval from    -120.1850     33.7500 to    -120.1825     33.7500
 Warning: no grid points on interval from    -120.1825     33.7500 to    -120.1800     33.7500
 Warning: no grid points on interval from    -120.1800     33.7500 to    -120.1775     33.7500
 Warning: no grid points on interval from    -120.1725     33.7500 to    -120.1700     33.7500
 Warning: no grid points on interval from    -120.1700     33.7500 to    -120.1675     33.7500
 Warning: no grid points on interval from    -120.1675     33.7500 to    -120.1650     33.7500
 Warning: no grid points on interval from    -120.1650     33.7500 to    -120.1625     33.7500
 Warning: no grid points on interval from    -120.1625     33.7500 to    -120.1600     33.7500
 Warning: no grid points on interval from    -120.1600     33.7500 to    -120.1575     33.7500
 Warning: no grid points on interval from    -120.1575     33.7500 to    -120.1550     33.7500
 Warning: no grid points on interval from    -120.1550     33.7500 to    -120.1525     33.7500
 Warning: no grid points on interval from    -120.1475     33.7500 to    -120.1450     33.7500
 Warning: no grid points on interval from    -120.1450     33.7500 to    -120.1425     33.7500
 Warning: no grid points on interval from    -120.1425     33.7500 to    -120.1400     33.7500
 Warning: no grid points on interval from    -120.1400     33.7500 to    -120.1375     33.7500
 Warning: no grid points on interval from    -120.1375     33.7500 to    -120.1350     33.7500
 Warning: no grid points on interval from    -120.1350     33.7500 to    -120.1325     33.7500
 Warning: no grid points on interval from    -120.1325     33.7500 to    -120.1300     33.7500
 Warning: no grid points on interval from    -120.1300     33.7500 to    -120.1275     33.7500
 Warning: no grid points on interval from    -120.1225     33.7500 to    -120.1200     33.7500
 Warning: no grid points on interval from    -120.1200     33.7500 to    -120.1175     33.7500
 Warning: no grid points on interval from    -120.1175     33.7500 to    -120.1150     33.7500
 Warning: no grid points on interval from    -120.1150     33.7500 to    -120.1125     33.7500
 Warning: no grid points on interval from    -120.1125     33.7500 to    -120.1100     33.7500
 Warning: no grid points on interval from    -120.1100     33.7500 to    -120.1075     33.7500
 Warning: no grid points on interval from    -120.1075     33.7500 to    -120.1050     33.7500
 Warning: no grid points on interval from    -120.1050     33.7500 to    -120.1025     33.7500
 Warning: no grid points on interval from    -120.0975     33.7500 to    -120.0950     33.7500
 Warning: no grid points on interval from    -120.0950     33.7500 to    -120.0925     33.7500
 Warning: no grid points on interval from    -120.0925     33.7500 to    -120.0900     33.7500
 Warning: no grid points on interval from    -120.0900     33.7500 to    -120.0875     33.7500
 Warning: no grid points on interval from    -120.0875     33.7500 to    -120.0850     33.7500
 Warning: no grid points on interval from    -120.0850     33.7500 to    -120.0825     33.7500
 Warning: no grid points on interval from    -120.0825     33.7500 to    -120.0800     33.7500
 Warning: no grid points on interval from    -120.0800     33.7500 to    -120.0775     33.7500
 Warning: no grid points on interval from    -120.0725     33.7500 to    -120.0700     33.7500
 Warning: no grid points on interval from    -120.0700     33.7500 to    -120.0675     33.7500
 Warning: no grid points on interval from    -120.0675     33.7500 to    -120.0650     33.7500
 Warning: no grid points on interval from    -120.0650     33.7500 to    -120.0625     33.7500
 Warning: no grid points on interval from    -120.0625     33.7500 to    -120.0600     33.7500
 Warning: no grid points on interval from    -120.0600     33.7500 to    -120.0575     33.7500
 Warning: no grid points on interval from    -120.0575     33.7500 to    -120.0550     33.7500
 Warning: no grid points on interval from    -120.0550     33.7500 to    -120.0525     33.7500
 Warning: no grid points on interval from    -120.0475     33.7500 to    -120.0450     33.7500
 Warning: no grid points on interval from    -120.0450     33.7500 to    -120.0425     33.7500
 Warning: no grid points on interval from    -120.0425     33.7500 to    -120.0400     33.7500
 Warning: no grid points on interval from    -120.0400     33.7500 to    -120.0375     33.7500
 Warning: no grid points on interval from    -120.0375     33.7500 to    -120.0350     33.7500
 Warning: no grid points on interval from    -120.0350     33.7500 to    -120.0325     33.7500
 Warning: no grid points on interval from    -120.0325     33.7500 to    -120.0300     33.7500
 Warning: no grid points on interval from    -120.0300     33.7500 to    -120.0275     33.7500
 Warning: no grid points on interval from    -120.0225     33.7500 to    -120.0200     33.7500
 Warning: no grid points on interval from    -120.0200     33.7500 to    -120.0175     33.7500
 Warning: no grid points on interval from    -120.0175     33.7500 to    -120.0150     33.7500
 Warning: no grid points on interval from    -120.0150     33.7500 to    -120.0125     33.7500
 Warning: no grid points on interval from    -120.0125     33.7500 to    -120.0100     33.7500
 Warning: no grid points on interval from    -120.0100     33.7500 to    -120.0075     33.7500
 Warning: no grid points on interval from    -120.0075     33.7500 to    -120.0050     33.7500
 Warning: no grid points on interval from    -120.0050     33.7500 to    -120.0025     33.7500
 Warning: no grid points on interval from    -119.9975     33.7500 to    -119.9950     33.7500
 Warning: no grid points on interval from    -119.9950     33.7500 to    -119.9925     33.7500
 Warning: no grid points on interval from    -119.9925     33.7500 to    -119.9900     33.7500
 Warning: no grid points on interval from    -119.9900     33.7500 to    -119.9875     33.7500
 Warning: no grid points on interval from    -119.9875     33.7500 to    -119.9850     33.7500
 Warning: no grid points on interval from    -119.9850     33.7500 to    -119.9825     33.7500
 Warning: no grid points on interval from    -119.9825     33.7500 to    -119.9800     33.7500
 Warning: no grid points on interval from    -119.9800     33.7500 to    -119.9775     33.7500
 Warning: no grid points on interval from    -119.9725     33.7500 to    -119.9700     33.7500
 Warning: no grid points on interval from    -119.9700     33.7500 to    -119.9675     33.7500
 Warning: no grid points on interval from    -119.9675     33.7500 to    -119.9650     33.7500
 Warning: no grid points on interval from    -119.9650     33.7500 to    -119.9625     33.7500
 Warning: no grid points on interval from    -119.9625     33.7500 to    -119.9600     33.7500
 Warning: no grid points on interval from    -119.9600     33.7500 to    -119.9575     33.7500
 Warning: no grid points on interval from    -119.9575     33.7500 to    -119.9550     33.7500
 Warning: no grid points on interval from    -119.9550     33.7500 to    -119.9525     33.7500
 Warning: no grid points on interval from    -119.9475     33.7500 to    -119.9450     33.7500
 Warning: no grid points on interval from    -119.9450     33.7500 to    -119.9425     33.7500
 Warning: no grid points on interval from    -119.9425     33.7500 to    -119.9400     33.7500
 Warning: no grid points on interval from    -119.9400     33.7500 to    -119.9375     33.7500
 Warning: no grid points on interval from    -119.9375     33.7500 to    -119.9350     33.7500
 Warning: no grid points on interval from    -119.9350     33.7500 to    -119.9325     33.7500
 Warning: no grid points on interval from    -119.9325     33.7500 to    -119.9300     33.7500
 Warning: no grid points on interval from    -119.9300     33.7500 to    -119.9275     33.7500
 Warning: no grid points on interval from    -119.9225     33.7500 to    -119.9200     33.7500
 Warning: no grid points on interval from    -119.9200     33.7500 to    -119.9175     33.7500
 Warning: no grid points on interval from    -119.9175     33.7500 to    -119.9150     33.7500
 Warning: no grid points on interval from    -119.9150     33.7500 to    -119.9125     33.7500
 Warning: no grid points on interval from    -119.9125     33.7500 to    -119.9100     33.7500
 Warning: no grid points on interval from    -119.9100     33.7500 to    -119.9075     33.7500
 Warning: no grid points on interval from    -119.9075     33.7500 to    -119.9050     33.7500
 Warning: no grid points on interval from    -119.9050     33.7500 to    -119.9025     33.7500
 Warning: no grid points on interval from    -119.8975     33.7500 to    -119.8950     33.7500
 Warning: no grid points on interval from    -119.8950     33.7500 to    -119.8925     33.7500
 Warning: no grid points on interval from    -119.8925     33.7500 to    -119.8900     33.7500
 Warning: no grid points on interval from    -119.8900     33.7500 to    -119.8875     33.7500
 Warning: no grid points on interval from    -119.8875     33.7500 to    -119.8850     33.7500
 Warning: no grid points on interval from    -119.8850     33.7500 to    -119.8825     33.7500
 Warning: no grid points on interval from    -119.8825     33.7500 to    -119.8800     33.7500
 Warning: no grid points on interval from    -119.8800     33.7500 to    -119.8775     33.7500
 Warning: no grid points on interval from    -119.8725     33.7500 to    -119.8700     33.7500
 Warning: no grid points on interval from    -119.8700     33.7500 to    -119.8675     33.7500
 Warning: no grid points on interval from    -119.8675     33.7500 to    -119.8650     33.7500
 Warning: no grid points on interval from    -119.8650     33.7500 to    -119.8625     33.7500
 Warning: no grid points on interval from    -119.8625     33.7500 to    -119.8600     33.7500
 Warning: no grid points on interval from    -119.8600     33.7500 to    -119.8575     33.7500
 Warning: no grid points on interval from    -119.8575     33.7500 to    -119.8550     33.7500
 Warning: no grid points on interval from    -119.8550     33.7500 to    -119.8525     33.7500
 Warning: no grid points on interval from    -119.8475     33.7500 to    -119.8450     33.7500
 Warning: no grid points on interval from    -119.8450     33.7500 to    -119.8425     33.7500
 Warning: no grid points on interval from    -119.8425     33.7500 to    -119.8400     33.7500
 Warning: no grid points on interval from    -119.8400     33.7500 to    -119.8375     33.7500
 Warning: no grid points on interval from    -119.8375     33.7500 to    -119.8350     33.7500
 Warning: no grid points on interval from    -119.8350     33.7500 to    -119.8325     33.7500
 Warning: no grid points on interval from    -119.8325     33.7500 to    -119.8300     33.7500
 Warning: no grid points on interval from    -119.8300     33.7500 to    -119.8275     33.7500
 Warning: no grid points on interval from    -119.8225     33.7500 to    -119.8200     33.7500
 Warning: no grid points on interval from    -119.8200     33.7500 to    -119.8175     33.7500
 Warning: no grid points on interval from    -119.8175     33.7500 to    -119.8150     33.7500
 Warning: no grid points on interval from    -119.8150     33.7500 to    -119.8125     33.7500
 Warning: no grid points on interval from    -119.8125     33.7500 to    -119.8100     33.7500
 Warning: no grid points on interval from    -119.8100     33.7500 to    -119.8075     33.7500
 Warning: no grid points on interval from    -119.8075     33.7500 to    -119.8050     33.7500
 Warning: no grid points on interval from    -119.8050     33.7500 to    -119.8025     33.7500
 Warning: no grid points on interval from    -119.7975     33.7500 to    -119.7950     33.7500
 Warning: no grid points on interval from    -119.7950     33.7500 to    -119.7925     33.7500
 Warning: no grid points on interval from    -119.7925     33.7500 to    -119.7900     33.7500
 Warning: no grid points on interval from    -119.7900     33.7500 to    -119.7875     33.7500
 Warning: no grid points on interval from    -119.7875     33.7500 to    -119.7850     33.7500
 Warning: no grid points on interval from    -119.7850     33.7500 to    -119.7825     33.7500
 Warning: no grid points on interval from    -119.7825     33.7500 to    -119.7800     33.7500
 Warning: no grid points on interval from    -119.7800     33.7500 to    -119.7775     33.7500
 Warning: no grid points on interval from    -119.7725     33.7500 to    -119.7700     33.7500
 Warning: no grid points on interval from    -119.7700     33.7500 to    -119.7675     33.7500
 Warning: no grid points on interval from    -119.7675     33.7500 to    -119.7650     33.7500
 Warning: no grid points on interval from    -119.7650     33.7500 to    -119.7625     33.7500
 Warning: no grid points on interval from    -119.7625     33.7500 to    -119.7600     33.7500
 Warning: no grid points on interval from    -119.7600     33.7500 to    -119.7575     33.7500
 Warning: no grid points on interval from    -119.7575     33.7500 to    -119.7550     33.7500
 Warning: no grid points on interval from    -119.7550     33.7500 to    -119.7525     33.7500
 Warning: no grid points on interval from    -119.7475     33.7500 to    -119.7450     33.7500
 Warning: no grid points on interval from    -119.7450     33.7500 to    -119.7425     33.7500
 Warning: no grid points on interval from    -119.7425     33.7500 to    -119.7400     33.7500
 Warning: no grid points on interval from    -119.7400     33.7500 to    -119.7375     33.7500
 Warning: no grid points on interval from    -119.7375     33.7500 to    -119.7350     33.7500
 Warning: no grid points on interval from    -119.7350     33.7500 to    -119.7325     33.7500
 Warning: no grid points on interval from    -119.7325     33.7500 to    -119.7300     33.7500
 Warning: no grid points on interval from    -119.7300     33.7500 to    -119.7275     33.7500
 Warning: no grid points on interval from    -119.7225     33.7500 to    -119.7200     33.7500
 Warning: no grid points on interval from    -119.7200     33.7500 to    -119.7175     33.7500
 Warning: no grid points on interval from    -119.7175     33.7500 to    -119.7150     33.7500
 Warning: no grid points on interval from    -119.7150     33.7500 to    -119.7125     33.7500
 Warning: no grid points on interval from    -119.7125     33.7500 to    -119.7100     33.7500
 Warning: no grid points on interval from    -119.7100     33.7500 to    -119.7075     33.7500
 Warning: no grid points on interval from    -119.7075     33.7500 to    -119.7050     33.7500
 Warning: no grid points on interval from    -119.7050     33.7500 to    -119.7025     33.7500
 Warning: no grid points on interval from    -119.6975     33.7500 to    -119.6950     33.7500
 Warning: no grid points on interval from    -119.6950     33.7500 to    -119.6925     33.7500
 Warning: no grid points on interval from    -119.6925     33.7500 to    -119.6900     33.7500
 Warning: no grid points on interval from    -119.6900     33.7500 to    -119.6875     33.7500
 Warning: no grid points on interval from    -119.6875     33.7500 to    -119.6850     33.7500
 Warning: no grid points on interval from    -119.6850     33.7500 to    -119.6825     33.7500
 Warning: no grid points on interval from    -119.6825     33.7500 to    -119.6800     33.7500
 Warning: no grid points on interval from    -119.6800     33.7500 to    -119.6775     33.7500
 Warning: no grid points on interval from    -119.6725     33.7500 to    -119.6700     33.7500
 Warning: no grid points on interval from    -119.6700     33.7500 to    -119.6675     33.7500
 Warning: no grid points on interval from    -119.6675     33.7500 to    -119.6650     33.7500
 Warning: no grid points on interval from    -119.6650     33.7500 to    -119.6625     33.7500
 Warning: no grid points on interval from    -119.6625     33.7500 to    -119.6600     33.7500
 Warning: no grid points on interval from    -119.6600     33.7500 to    -119.6575     33.7500
 Warning: no grid points on interval from    -119.6575     33.7500 to    -119.6550     33.7500
 Warning: no grid points on interval from    -119.6550     33.7500 to    -119.6525     33.7500
 Warning: no grid points on interval from    -119.6475     33.7500 to    -119.6450     33.7500
 Warning: no grid points on interval from    -119.6450     33.7500 to    -119.6425     33.7500
 Warning: no grid points on interval from    -119.6425     33.7500 to    -119.6400     33.7500
 Warning: no grid points on interval from    -119.6400     33.7500 to    -119.6375     33.7500
 Warning: no grid points on interval from    -119.6375     33.7500 to    -119.6350     33.7500
 Warning: no grid points on interval from    -119.6350     33.7500 to    -119.6325     33.7500
 Warning: no grid points on interval from    -119.6325     33.7500 to    -119.6300     33.7500
 Warning: no grid points on interval from    -119.6300     33.7500 to    -119.6275     33.7500
 Warning: no grid points on interval from    -119.6225     33.7500 to    -119.6200     33.7500
 Warning: no grid points on interval from    -119.6200     33.7500 to    -119.6175     33.7500
 Warning: no grid points on interval from    -119.6175     33.7500 to    -119.6150     33.7500
 Warning: no grid points on interval from    -119.6150     33.7500 to    -119.6125     33.7500
 Warning: no grid points on interval from    -119.6125     33.7500 to    -119.6100     33.7500
 Warning: no grid points on interval from    -119.6100     33.7500 to    -119.6075     33.7500
 Warning: no grid points on interval from    -119.6075     33.7500 to    -119.6050     33.7500
 Warning: no grid points on interval from    -119.6050     33.7500 to    -119.6025     33.7500
 Warning: no grid points on interval from    -119.5975     33.7500 to    -119.5950     33.7500
 Warning: no grid points on interval from    -119.5950     33.7500 to    -119.5925     33.7500
 Warning: no grid points on interval from    -119.5925     33.7500 to    -119.5900     33.7500
 Warning: no grid points on interval from    -119.5900     33.7500 to    -119.5875     33.7500
 Warning: no grid points on interval from    -119.5875     33.7500 to    -119.5850     33.7500
 Warning: no grid points on interval from    -119.5850     33.7500 to    -119.5825     33.7500
 Warning: no grid points on interval from    -119.5825     33.7500 to    -119.5800     33.7500
 Warning: no grid points on interval from    -119.5800     33.7500 to    -119.5775     33.7500
 Warning: no grid points on interval from    -119.5725     33.7500 to    -119.5700     33.7500
 Warning: no grid points on interval from    -119.5700     33.7500 to    -119.5675     33.7500
 Warning: no grid points on interval from    -119.5675     33.7500 to    -119.5650     33.7500
 Warning: no grid points on interval from    -119.5650     33.7500 to    -119.5625     33.7500
 Warning: no grid points on interval from    -119.5625     33.7500 to    -119.5600     33.7500
 Warning: no grid points on interval from    -119.5600     33.7500 to    -119.5575     33.7500
 Warning: no grid points on interval from    -119.5575     33.7500 to    -119.5550     33.7500
 Warning: no grid points on interval from    -119.5550     33.7500 to    -119.5525     33.7500
 Warning: no grid points on interval from    -119.5475     33.7500 to    -119.5450     33.7500
 Warning: no grid points on interval from    -119.5450     33.7500 to    -119.5425     33.7500
 Warning: no grid points on interval from    -119.5425     33.7500 to    -119.5400     33.7500
 Warning: no grid points on interval from    -119.5400     33.7500 to    -119.5375     33.7500
 Warning: no grid points on interval from    -119.5375     33.7500 to    -119.5350     33.7500
 Warning: no grid points on interval from    -119.5350     33.7500 to    -119.5325     33.7500
 Warning: no grid points on interval from    -119.5325     33.7500 to    -119.5300     33.7500
 Warning: no grid points on interval from    -119.5300     33.7500 to    -119.5275     33.7500
 Warning: no grid points on interval from    -119.5225     33.7500 to    -119.5200     33.7500
 Warning: no grid points on interval from    -119.5200     33.7500 to    -119.5175     33.7500
 Warning: no grid points on interval from    -119.5175     33.7500 to    -119.5150     33.7500
 Warning: no grid points on interval from    -119.5150     33.7500 to    -119.5125     33.7500
 Warning: no grid points on interval from    -119.5125     33.7500 to    -119.5100     33.7500
 Warning: no grid points on interval from    -119.5100     33.7500 to    -119.5075     33.7500
 Warning: no grid points on interval from    -119.5075     33.7500 to    -119.5050     33.7500
 Warning: no grid points on interval from    -119.5050     33.7500 to    -119.5025     33.7500
 Warning: no grid points on interval from    -119.4975     33.7500 to    -119.4950     33.7500
 Warning: no grid points on interval from    -119.4950     33.7500 to    -119.4925     33.7500
 Warning: no grid points on interval from    -119.4925     33.7500 to    -119.4900     33.7500
 Warning: no grid points on interval from    -119.4900     33.7500 to    -119.4875     33.7500
 Warning: no grid points on interval from    -119.4875     33.7500 to    -119.4850     33.7500
 Warning: no grid points on interval from    -119.4850     33.7500 to    -119.4825     33.7500
 Warning: no grid points on interval from    -119.4825     33.7500 to    -119.4800     33.7500
 Warning: no grid points on interval from    -119.4800     33.7500 to    -119.4775     33.7500
 Warning: no grid points on interval from    -119.4725     33.7500 to    -119.4700     33.7500
 Warning: no grid points on interval from    -119.4700     33.7500 to    -119.4675     33.7500
 Warning: no grid points on interval from    -119.4675     33.7500 to    -119.4650     33.7500
 Warning: no grid points on interval from    -119.4650     33.7500 to    -119.4625     33.7500
 Warning: no grid points on interval from    -119.4625     33.7500 to    -119.4600     33.7500
 Warning: no grid points on interval from    -119.4600     33.7500 to    -119.4575     33.7500
 Warning: no grid points on interval from    -119.4575     33.7500 to    -119.4550     33.7500
 Warning: no grid points on interval from    -119.4550     33.7500 to    -119.4525     33.7500
 Warning: no grid points on interval from    -119.4475     33.7500 to    -119.4450     33.7500
 Warning: no grid points on interval from    -119.4450     33.7500 to    -119.4425     33.7500
 Warning: no grid points on interval from    -119.4425     33.7500 to    -119.4400     33.7500
 Warning: no grid points on interval from    -119.4400     33.7500 to    -119.4375     33.7500
 Warning: no grid points on interval from    -119.4375     33.7500 to    -119.4350     33.7500
 Warning: no grid points on interval from    -119.4350     33.7500 to    -119.4325     33.7500
 Warning: no grid points on interval from    -119.4325     33.7500 to    -119.4300     33.7500
 Warning: no grid points on interval from    -119.4300     33.7500 to    -119.4275     33.7500
 Warning: no grid points on interval from    -119.4225     33.7500 to    -119.4200     33.7500
 Warning: no grid points on interval from    -119.4200     33.7500 to    -119.4175     33.7500
 Warning: no grid points on interval from    -119.4175     33.7500 to    -119.4150     33.7500
 Warning: no grid points on interval from    -119.4150     33.7500 to    -119.4125     33.7500
 Warning: no grid points on interval from    -119.4125     33.7500 to    -119.4100     33.7500
 Warning: no grid points on interval from    -119.4100     33.7500 to    -119.4075     33.7500
 Warning: no grid points on interval from    -119.4075     33.7500 to    -119.4050     33.7500
 Warning: no grid points on interval from    -119.4050     33.7500 to    -119.4025     33.7500
 Warning: no grid points on interval from    -119.3975     33.7500 to    -119.3950     33.7500
 Warning: no grid points on interval from    -119.3950     33.7500 to    -119.3925     33.7500
 Warning: no grid points on interval from    -119.3925     33.7500 to    -119.3900     33.7500
 Warning: no grid points on interval from    -119.3900     33.7500 to    -119.3875     33.7500
 Warning: no grid points on interval from    -119.3875     33.7500 to    -119.3850     33.7500
 Warning: no grid points on interval from    -119.3850     33.7500 to    -119.3825     33.7500
 Warning: no grid points on interval from    -119.3825     33.7500 to    -119.3800     33.7500
 Warning: no grid points on interval from    -119.3800     33.7500 to    -119.3775     33.7500
 Warning: no grid points on interval from    -119.3725     33.7500 to    -119.3700     33.7500
 Warning: no grid points on interval from    -119.3700     33.7500 to    -119.3675     33.7500
 Warning: no grid points on interval from    -119.3675     33.7500 to    -119.3650     33.7500
 Warning: no grid points on interval from    -119.3650     33.7500 to    -119.3625     33.7500
 Warning: no grid points on interval from    -119.3625     33.7500 to    -119.3600     33.7500
 Warning: no grid points on interval from    -119.3600     33.7500 to    -119.3575     33.7500
 Warning: no grid points on interval from    -119.3575     33.7500 to    -119.3550     33.7500
 Warning: no grid points on interval from    -119.3550     33.7500 to    -119.3525     33.7500
 Warning: no grid points on interval from    -119.3475     33.7500 to    -119.3450     33.7500
 Warning: no grid points on interval from    -119.3450     33.7500 to    -119.3425     33.7500
 Warning: no grid points on interval from    -119.3425     33.7500 to    -119.3400     33.7500
 Warning: no grid points on interval from    -119.3400     33.7500 to    -119.3375     33.7500
 Warning: no grid points on interval from    -119.3375     33.7500 to    -119.3350     33.7500
 Warning: no grid points on interval from    -119.3350     33.7500 to    -119.3325     33.7500
 Warning: no grid points on interval from    -119.3325     33.7500 to    -119.3300     33.7500
 Warning: no grid points on interval from    -119.3300     33.7500 to    -119.3275     33.7500
 Warning: no grid points on interval from    -119.3225     33.7500 to    -119.3200     33.7500
 Warning: no grid points on interval from    -119.3200     33.7500 to    -119.3175     33.7500
 Warning: no grid points on interval from    -119.3175     33.7500 to    -119.3150     33.7500
 Warning: no grid points on interval from    -119.3150     33.7500 to    -119.3125     33.7500
 Warning: no grid points on interval from    -119.3125     33.7500 to    -119.3100     33.7500
 Warning: no grid points on interval from    -119.3100     33.7500 to    -119.3075     33.7500
 Warning: no grid points on interval from    -119.3075     33.7500 to    -119.3050     33.7500
 Warning: no grid points on interval from    -119.3050     33.7500 to    -119.3025     33.7500
 Warning: no grid points on interval from    -119.2975     33.7500 to    -119.2950     33.7500
 Warning: no grid points on interval from    -119.2950     33.7500 to    -119.2925     33.7500
 Warning: no grid points on interval from    -119.2925     33.7500 to    -119.2900     33.7500
 Warning: no grid points on interval from    -119.2900     33.7500 to    -119.2875     33.7500
 Warning: no grid points on interval from    -119.2875     33.7500 to    -119.2850     33.7500
 Warning: no grid points on interval from    -119.2850     33.7500 to    -119.2825     33.7500
 Warning: no grid points on interval from    -119.2825     33.7500 to    -119.2800     33.7500
 Warning: no grid points on interval from    -119.2800     33.7500 to    -119.2775     33.7500
 Warning: no grid points on interval from    -119.2725     33.7500 to    -119.2700     33.7500
 Warning: no grid points on interval from    -119.2700     33.7500 to    -119.2675     33.7500
 Warning: no grid points on interval from    -119.2675     33.7500 to    -119.2650     33.7500
 Warning: no grid points on interval from    -119.2650     33.7500 to    -119.2625     33.7500
 Warning: no grid points on interval from    -119.2625     33.7500 to    -119.2600     33.7500
 Warning: no grid points on interval from    -119.2600     33.7500 to    -119.2575     33.7500
 Warning: no grid points on interval from    -119.2575     33.7500 to    -119.2550     33.7500
 Warning: no grid points on interval from    -119.2550     33.7500 to    -119.2525     33.7500
 Warning: no grid points on interval from    -119.2475     33.7500 to    -119.2450     33.7500
 Warning: no grid points on interval from    -119.2450     33.7500 to    -119.2425     33.7500
 Warning: no grid points on interval from    -119.2425     33.7500 to    -119.2400     33.7500
 Warning: no grid points on interval from    -119.2400     33.7500 to    -119.2375     33.7500
 Warning: no grid points on interval from    -119.2375     33.7500 to    -119.2350     33.7500
 Warning: no grid points on interval from    -119.2350     33.7500 to    -119.2325     33.7500
 Warning: no grid points on interval from    -119.2325     33.7500 to    -119.2300     33.7500
 Warning: no grid points on interval from    -119.2300     33.7500 to    -119.2275     33.7500
 Warning: no grid points on interval from    -119.2225     33.7500 to    -119.2200     33.7500
 Warning: no grid points on interval from    -119.2200     33.7500 to    -119.2175     33.7500
 Warning: no grid points on interval from    -119.2175     33.7500 to    -119.2150     33.7500
 Warning: no grid points on interval from    -119.2150     33.7500 to    -119.2125     33.7500
 Warning: no grid points on interval from    -119.2125     33.7500 to    -119.2100     33.7500
 Warning: no grid points on interval from    -119.2100     33.7500 to    -119.2075     33.7500
 Warning: no grid points on interval from    -119.2075     33.7500 to    -119.2050     33.7500
 Warning: no grid points on interval from    -119.2050     33.7500 to    -119.2025     33.7500
 Warning: no grid points on interval from    -119.1975     33.7500 to    -119.1950     33.7500
 Warning: no grid points on interval from    -119.1950     33.7500 to    -119.1925     33.7500
 Warning: no grid points on interval from    -119.1925     33.7500 to    -119.1900     33.7500
 Warning: no grid points on interval from    -119.1900     33.7500 to    -119.1875     33.7500
 Warning: no grid points on interval from    -119.1875     33.7500 to    -119.1850     33.7500
 Warning: no grid points on interval from    -119.1850     33.7500 to    -119.1825     33.7500
 Warning: no grid points on interval from    -119.1825     33.7500 to    -119.1800     33.7500
 Warning: no grid points on interval from    -119.1800     33.7500 to    -119.1775     33.7500
 Warning: no grid points on interval from    -119.1725     33.7500 to    -119.1700     33.7500
 Warning: no grid points on interval from    -119.1700     33.7500 to    -119.1675     33.7500
 Warning: no grid points on interval from    -119.1675     33.7500 to    -119.1650     33.7500
 Warning: no grid points on interval from    -119.1650     33.7500 to    -119.1625     33.7500
 Warning: no grid points on interval from    -119.1625     33.7500 to    -119.1600     33.7500
 Warning: no grid points on interval from    -119.1600     33.7500 to    -119.1575     33.7500
 Warning: no grid points on interval from    -119.1575     33.7500 to    -119.1550     33.7500
 Warning: no grid points on interval from    -119.1550     33.7500 to    -119.1525     33.7500
 Warning: no grid points on interval from    -119.1475     33.7500 to    -119.1450     33.7500
 Warning: no grid points on interval from    -119.1450     33.7500 to    -119.1425     33.7500
 Warning: no grid points on interval from    -119.1425     33.7500 to    -119.1400     33.7500
 Warning: no grid points on interval from    -119.1400     33.7500 to    -119.1375     33.7500
 Warning: no grid points on interval from    -119.1375     33.7500 to    -119.1350     33.7500
 Warning: no grid points on interval from    -119.1350     33.7500 to    -119.1325     33.7500
 Warning: no grid points on interval from    -119.1325     33.7500 to    -119.1300     33.7500
 Warning: no grid points on interval from    -119.1300     33.7500 to    -119.1275     33.7500
 Warning: no grid points on interval from    -119.1225     33.7500 to    -119.1200     33.7500
 Warning: no grid points on interval from    -119.1200     33.7500 to    -119.1175     33.7500
 Warning: no grid points on interval from    -119.1175     33.7500 to    -119.1150     33.7500
 Warning: no grid points on interval from    -119.1150     33.7500 to    -119.1125     33.7500
 Warning: no grid points on interval from    -119.1125     33.7500 to    -119.1100     33.7500
 Warning: no grid points on interval from    -119.1100     33.7500 to    -119.1075     33.7500
 Warning: no grid points on interval from    -119.1075     33.7500 to    -119.1050     33.7500
 Warning: no grid points on interval from    -119.1050     33.7500 to    -119.1025     33.7500
 Warning: no grid points on interval from    -119.0975     33.7500 to    -119.0950     33.7500
 Warning: no grid points on interval from    -119.0950     33.7500 to    -119.0925     33.7500
 Warning: no grid points on interval from    -119.0925     33.7500 to    -119.0900     33.7500
 Warning: no grid points on interval from    -119.0900     33.7500 to    -119.0875     33.7500
 Warning: no grid points on interval from    -119.0875     33.7500 to    -119.0850     33.7500
 Warning: no grid points on interval from    -119.0850     33.7500 to    -119.0825     33.7500
 Warning: no grid points on interval from    -119.0825     33.7500 to    -119.0800     33.7500
 Warning: no grid points on interval from    -119.0800     33.7500 to    -119.0775     33.7500
 Warning: no grid points on interval from    -119.0725     33.7500 to    -119.0700     33.7500
 Warning: no grid points on interval from    -119.0700     33.7500 to    -119.0675     33.7500
 Warning: no grid points on interval from    -119.0675     33.7500 to    -119.0650     33.7500
 Warning: no grid points on interval from    -119.0650     33.7500 to    -119.0625     33.7500
 Warning: no grid points on interval from    -119.0625     33.7500 to    -119.0600     33.7500
 Warning: no grid points on interval from    -119.0600     33.7500 to    -119.0575     33.7500
 Warning: no grid points on interval from    -119.0575     33.7500 to    -119.0550     33.7500
 Warning: no grid points on interval from    -119.0550     33.7500 to    -119.0525     33.7500
 Warning: no grid points on interval from    -119.0475     33.7500 to    -119.0450     33.7500
 Warning: no grid points on interval from    -119.0450     33.7500 to    -119.0425     33.7500
 Warning: no grid points on interval from    -119.0425     33.7500 to    -119.0400     33.7500
 Warning: no grid points on interval from    -119.0400     33.7500 to    -119.0375     33.7500
 Warning: no grid points on interval from    -119.0375     33.7500 to    -119.0350     33.7500
 Warning: no grid points on interval from    -119.0350     33.7500 to    -119.0325     33.7500
 Warning: no grid points on interval from    -119.0325     33.7500 to    -119.0300     33.7500
 Warning: no grid points on interval from    -119.0300     33.7500 to    -119.0275     33.7500
 Warning: no grid points on interval from    -119.0225     33.7500 to    -119.0200     33.7500
 Warning: no grid points on interval from    -119.0200     33.7500 to    -119.0175     33.7500
 Warning: no grid points on interval from    -119.0175     33.7500 to    -119.0150     33.7500
 Warning: no grid points on interval from    -119.0150     33.7500 to    -119.0125     33.7500
 Warning: no grid points on interval from    -119.0125     33.7500 to    -119.0100     33.7500
 Warning: no grid points on interval from    -119.0100     33.7500 to    -119.0075     33.7500
 Warning: no grid points on interval from    -119.0075     33.7500 to    -119.0050     33.7500
 Warning: no grid points on interval from    -119.0050     33.7500 to    -119.0025     33.7500
 Warning: no grid points on interval from    -119.0000     33.7525 to    -119.0000     33.7550
 Warning: no grid points on interval from    -119.0000     33.7550 to    -119.0000     33.7575
 Warning: no grid points on interval from    -119.0000     33.7575 to    -119.0000     33.7600
 Warning: no grid points on interval from    -119.0000     33.7600 to    -119.0000     33.7625
 Warning: no grid points on interval from    -119.0000     33.7625 to    -119.0000     33.7650
 Warning: no grid points on interval from    -119.0000     33.7650 to    -119.0000     33.7675
 Warning: no grid points on interval from    -119.0000     33.7675 to    -119.0000     33.7700
 Warning: no grid points on interval from    -119.0000     33.7700 to    -119.0000     33.7725
 Warning: no grid points on interval from    -119.0000     33.7775 to    -119.0000     33.7800
 Warning: no grid points on interval from    -119.0000     33.7800 to    -119.0000     33.7825
 Warning: no grid points on interval from    -119.0000     33.7825 to    -119.0000     33.7850
 Warning: no grid points on interval from    -119.0000     33.7850 to    -119.0000     33.7875
 Warning: no grid points on interval from    -119.0000     33.7875 to    -119.0000     33.7900
 Warning: no grid points on interval from    -119.0000     33.7900 to    -119.0000     33.7925
 Warning: no grid points on interval from    -119.0000     33.7925 to    -119.0000     33.7950
 Warning: no grid points on interval from    -119.0000     33.7950 to    -119.0000     33.7975
 Warning: no grid points on interval from    -119.0000     33.8025 to    -119.0000     33.8050
 Warning: no grid points on interval from    -119.0000     33.8050 to    -119.0000     33.8075
 Warning: no grid points on interval from    -119.0000     33.8075 to    -119.0000     33.8100
 Warning: no grid points on interval from    -119.0000     33.8100 to    -119.0000     33.8125
 Warning: no grid points on interval from    -119.0000     33.8125 to    -119.0000     33.8150
 Warning: no grid points on interval from    -119.0000     33.8150 to    -119.0000     33.8175
 Warning: no grid points on interval from    -119.0000     33.8175 to    -119.0000     33.8200
 Warning: no grid points on interval from    -119.0000     33.8200 to    -119.0000     33.8225
 Warning: no grid points on interval from    -119.0000     33.8275 to    -119.0000     33.8300
 Warning: no grid points on interval from    -119.0000     33.8300 to    -119.0000     33.8325
 Warning: no grid points on interval from    -119.0000     33.8325 to    -119.0000     33.8350
 Warning: no grid points on interval from    -119.0000     33.8350 to    -119.0000     33.8375
 Warning: no grid points on interval from    -119.0000     33.8375 to    -119.0000     33.8400
 Warning: no grid points on interval from    -119.0000     33.8400 to    -119.0000     33.8425
 Warning: no grid points on interval from    -119.0000     33.8425 to    -119.0000     33.8450
 Warning: no grid points on interval from    -119.0000     33.8450 to    -119.0000     33.8475
 Warning: no grid points on interval from    -119.0000     33.8525 to    -119.0000     33.8550
 Warning: no grid points on interval from    -119.0000     33.8550 to    -119.0000     33.8575
 Warning: no grid points on interval from    -119.0000     33.8575 to    -119.0000     33.8600
 Warning: no grid points on interval from    -119.0000     33.8600 to    -119.0000     33.8625
 Warning: no grid points on interval from    -119.0000     33.8625 to    -119.0000     33.8650
 Warning: no grid points on interval from    -119.0000     33.8650 to    -119.0000     33.8675
 Warning: no grid points on interval from    -119.0000     33.8675 to    -119.0000     33.8700
 Warning: no grid points on interval from    -119.0000     33.8700 to    -119.0000     33.8725
 Warning: no grid points on interval from    -119.0000     33.8775 to    -119.0000     33.8800
 Warning: no grid points on interval from    -119.0000     33.8800 to    -119.0000     33.8825
 Warning: no grid points on interval from    -119.0000     33.8825 to    -119.0000     33.8850
 Warning: no grid points on interval from    -119.0000     33.8850 to    -119.0000     33.8875
 Warning: no grid points on interval from    -119.0000     33.8875 to    -119.0000     33.8900
 Warning: no grid points on interval from    -119.0000     33.8900 to    -119.0000     33.8925
 Warning: no grid points on interval from    -119.0000     33.8925 to    -119.0000     33.8950
 Warning: no grid points on interval from    -119.0000     33.8950 to    -119.0000     33.8975
 Warning: no grid points on interval from    -119.0000     33.9025 to    -119.0000     33.9050
 Warning: no grid points on interval from    -119.0000     33.9050 to    -119.0000     33.9075
 Warning: no grid points on interval from    -119.0000     33.9075 to    -119.0000     33.9100
 Warning: no grid points on interval from    -119.0000     33.9100 to    -119.0000     33.9125
 Warning: no grid points on interval from    -119.0000     33.9125 to    -119.0000     33.9150
 Warning: no grid points on interval from    -119.0000     33.9150 to    -119.0000     33.9175
 Warning: no grid points on interval from    -119.0000     33.9175 to    -119.0000     33.9200
 Warning: no grid points on interval from    -119.0000     33.9200 to    -119.0000     33.9225
 Warning: no grid points on interval from    -119.0000     33.9275 to    -119.0000     33.9300
 Warning: no grid points on interval from    -119.0000     33.9300 to    -119.0000     33.9325
 Warning: no grid points on interval from    -119.0000     33.9325 to    -119.0000     33.9350
 Warning: no grid points on interval from    -119.0000     33.9350 to    -119.0000     33.9375
 Warning: no grid points on interval from    -119.0000     33.9375 to    -119.0000     33.9400
 Warning: no grid points on interval from    -119.0000     33.9400 to    -119.0000     33.9425
 Warning: no grid points on interval from    -119.0000     33.9425 to    -119.0000     33.9450
 Warning: no grid points on interval from    -119.0000     33.9450 to    -119.0000     33.9475
 Warning: no grid points on interval from    -119.0000     33.9525 to    -119.0000     33.9550
 Warning: no grid points on interval from    -119.0000     33.9550 to    -119.0000     33.9575
 Warning: no grid points on interval from    -119.0000     33.9575 to    -119.0000     33.9600
 Warning: no grid points on interval from    -119.0000     33.9600 to    -119.0000     33.9625
 Warning: no grid points on interval from    -119.0000     33.9625 to    -119.0000     33.9650
 Warning: no grid points on interval from    -119.0000     33.9650 to    -119.0000     33.9675
 Warning: no grid points on interval from    -119.0000     33.9675 to    -119.0000     33.9700
 Warning: no grid points on interval from    -119.0000     33.9700 to    -119.0000     33.9725
 Warning: no grid points on interval from    -119.0000     33.9775 to    -119.0000     33.9800
 Warning: no grid points on interval from    -119.0000     33.9800 to    -119.0000     33.9825
 Warning: no grid points on interval from    -119.0000     33.9825 to    -119.0000     33.9850
 Warning: no grid points on interval from    -119.0000     33.9850 to    -119.0000     33.9875
 Warning: no grid points on interval from    -119.0000     33.9875 to    -119.0000     33.9900
 Warning: no grid points on interval from    -119.0000     33.9900 to    -119.0000     33.9925
 Warning: no grid points on interval from    -119.0000     33.9925 to    -119.0000     33.9950
 Warning: no grid points on interval from    -119.0000     33.9950 to    -119.0000     33.9975
 Warning: no grid points on interval from    -119.0000     34.0025 to    -119.0000     34.0050
 Warning: no grid points on interval from    -119.0000     34.0050 to    -119.0000     34.0075
 Warning: no grid points on interval from    -119.0000     34.0075 to    -119.0000     34.0100
 Warning: no grid points on interval from    -119.0000     34.0100 to    -119.0000     34.0125
 Warning: no grid points on interval from    -119.0000     34.0125 to    -119.0000     34.0150
 Warning: no grid points on interval from    -119.0000     34.0150 to    -119.0000     34.0175
 Warning: no grid points on interval from    -119.0000     34.0175 to    -119.0000     34.0200
 Warning: no grid points on interval from    -119.0000     34.0200 to    -119.0000     34.0225
 Warning: no grid points on interval from    -119.0000     34.0275 to    -119.0000     34.0300
 Warning: no grid points on interval from    -119.0000     34.0300 to    -119.0000     34.0325
 Warning: no grid points on interval from    -119.0000     34.0325 to    -119.0000     34.0350
 Warning: no grid points on interval from    -119.0000     34.0350 to    -119.0000     34.0375
 Warning: no grid points on interval from    -119.0000     34.0375 to    -119.0000     34.0400
 Warning: no grid points on interval from    -119.0000     34.0400 to    -119.0000     34.0425
 Warning: no grid points on interval from    -119.0000     34.0425 to    -119.0000     34.0450
 Warning: no grid points on interval from    -119.0000     34.0450 to    -119.0000     34.0475
 Warning: no grid points on interval from    -119.0000     34.0525 to    -119.0000     34.0550
 Warning: no grid points on interval from    -119.0000     34.0550 to    -119.0000     34.0575
 Warning: no grid points on interval from    -119.0000     34.0575 to    -119.0000     34.0600
 Warning: no grid points on interval from    -119.0000     34.0600 to    -119.0000     34.0625
 Warning: no grid points on interval from    -119.0000     34.0625 to    -119.0000     34.0650
 Warning: no grid points on interval from    -119.0000     34.0650 to    -119.0000     34.0675
 Warning: no grid points on interval from    -119.0000     34.0675 to    -119.0000     34.0700
 Warning: no grid points on interval from    -119.0000     34.0700 to    -119.0000     34.0725
 Warning: no grid points on interval from    -119.0000     34.0725 to    -119.0000     34.0750
 Warning: no grid points on interval from    -119.0000     34.0750 to    -119.0000     34.0775
 Warning: no grid points on interval from    -119.0000     34.0775 to    -119.0000     34.0800
 Warning: no grid points on interval from    -119.0000     34.0800 to    -119.0000     34.0825
 Warning: no grid points on interval from    -119.0000     34.0825 to    -119.0000     34.0850
 Warning: no grid points on interval from    -119.0000     34.0850 to    -119.0000     34.0875
 Warning: no grid points on interval from    -119.0000     34.0875 to    -119.0000     34.0900
 Warning: no grid points on interval from    -119.0000     34.0900 to    -119.0000     34.0925
 Warning: no grid points on interval from    -119.0000     34.0925 to    -119.0000     34.0950
 Warning: no grid points on interval from    -119.0000     34.0950 to    -119.0000     34.0975
 Warning: no grid points on interval from    -119.0000     34.0975 to    -119.0000     34.1000
 Warning: no grid points on interval from    -119.0000     34.1000 to    -119.0000     34.1025
 Warning: no grid points on interval from    -119.0000     34.1025 to    -119.0000     34.1050
 Warning: no grid points on interval from    -119.0000     34.1050 to    -119.0000     34.1075
 Warning: no grid points on interval from    -119.0000     34.1075 to    -119.0000     34.1100
 Warning: no grid points on interval from    -119.0000     34.1100 to    -119.0000     34.1125
 Warning: no grid points on interval from    -119.0000     34.1125 to    -119.0000     34.1150
 Warning: no grid points on interval from    -119.0000     34.1150 to    -119.0000     34.1175
 Warning: no grid points on interval from    -119.0000     34.1175 to    -119.0000     34.1200
 Warning: no grid points on interval from    -119.0000     34.1200 to    -119.0000     34.1225
 Warning: no grid points on interval from    -119.0000     34.1225 to    -119.0000     34.1250
 Warning: no grid points on interval from    -119.0000     34.1250 to    -119.0000     34.1275
 Warning: no grid points on interval from    -119.0000     34.1275 to    -119.0000     34.1300
 Warning: no grid points on interval from    -119.0000     34.1300 to    -119.0000     34.1325
 Warning: no grid points on interval from    -119.0000     34.1325 to    -119.0000     34.1350
 Warning: no grid points on interval from    -119.0000     34.1350 to    -119.0000     34.1375
 Warning: no grid points on interval from    -119.0000     34.1375 to    -119.0000     34.1400
 Warning: no grid points on interval from    -119.0000     34.1400 to    -119.0000     34.1425
 Warning: no grid points on interval from    -119.0000     34.1425 to    -119.0000     34.1450
 Warning: no grid points on interval from    -119.0000     34.1450 to    -119.0000     34.1475
 Warning: no grid points on interval from    -119.0000     34.1475 to    -119.0000     34.1500
 Warning: no grid points on interval from    -119.0000     34.1500 to    -119.0000     34.1525
 Warning: no grid points on interval from    -119.0000     34.1525 to    -119.0000     34.1550
 Warning: no grid points on interval from    -119.0000     34.1550 to    -119.0000     34.1575
 Warning: no grid points on interval from    -119.0000     34.1575 to    -119.0000     34.1600
 Warning: no grid points on interval from    -119.0000     34.1600 to    -119.0000     34.1625
 Warning: no grid points on interval from    -119.0000     34.1625 to    -119.0000     34.1650
 Warning: no grid points on interval from    -119.0000     34.1650 to    -119.0000     34.1675
 Warning: no grid points on interval from    -119.0000     34.1675 to    -119.0000     34.1700
 Warning: no grid points on interval from    -119.0000     34.1700 to    -119.0000     34.1725
 Warning: no grid points on interval from    -119.0000     34.1725 to    -119.0000     34.1750
 Warning: no grid points on interval from    -119.0000     34.1750 to    -119.0000     34.1775
 Warning: no grid points on interval from    -119.0000     34.1775 to    -119.0000     34.1800
 Warning: no grid points on interval from    -119.0000     34.1800 to    -119.0000     34.1825
 Warning: no grid points on interval from    -119.0000     34.1825 to    -119.0000     34.1850
 Warning: no grid points on interval from    -119.0000     34.1850 to    -119.0000     34.1875
 Warning: no grid points on interval from    -119.0000     34.1875 to    -119.0000     34.1900
 Warning: no grid points on interval from    -119.0000     34.1900 to    -119.0000     34.1925
 Warning: no grid points on interval from    -119.0000     34.1925 to    -119.0000     34.1950
 Warning: no grid points on interval from    -119.0000     34.1950 to    -119.0000     34.1975
 Warning: no grid points on interval from    -119.0000     34.1975 to    -119.0000     34.2000
 Warning: no grid points on interval from    -119.0000     34.2000 to    -119.0000     34.2025
 Warning: no grid points on interval from    -119.0000     34.2025 to    -119.0000     34.2050
 Warning: no grid points on interval from    -119.0000     34.2050 to    -119.0000     34.2075
 Warning: no grid points on interval from    -119.0000     34.2075 to    -119.0000     34.2100
 Warning: no grid points on interval from    -119.0000     34.2100 to    -119.0000     34.2125
 Warning: no grid points on interval from    -119.0000     34.2125 to    -119.0000     34.2150
 Warning: no grid points on interval from    -119.0000     34.2150 to    -119.0000     34.2175
 Warning: no grid points on interval from    -119.0000     34.2175 to    -119.0000     34.2200
 Warning: no grid points on interval from    -119.0000     34.2200 to    -119.0000     34.2225
 Warning: no grid points on interval from    -119.0000     34.2225 to    -119.0000     34.2250
 Warning: no grid points on interval from    -119.0000     34.2250 to    -119.0000     34.2275
 Warning: no grid points on interval from    -119.0000     34.2275 to    -119.0000     34.2300
 Warning: no grid points on interval from    -119.0000     34.2300 to    -119.0000     34.2325
 Warning: no grid points on interval from    -119.0000     34.2325 to    -119.0000     34.2350
 Warning: no grid points on interval from    -119.0000     34.2350 to    -119.0000     34.2375
 Warning: no grid points on interval from    -119.0000     34.2375 to    -119.0000     34.2400
 Warning: no grid points on interval from    -119.0000     34.2400 to    -119.0000     34.2425
 Warning: no grid points on interval from    -119.0000     34.2425 to    -119.0000     34.2450
 Warning: no grid points on interval from    -119.0000     34.2450 to    -119.0000     34.2475
 Warning: no grid points on interval from    -119.0000     34.2475 to    -119.0000     34.2500
 Warning: no grid points on interval from    -119.0000     34.2500 to    -119.0000     34.2525
 Warning: no grid points on interval from    -119.0000     34.2525 to    -119.0000     34.2550
 Warning: no grid points on interval from    -119.0000     34.2550 to    -119.0000     34.2575
 Warning: no grid points on interval from    -119.0000     34.2575 to    -119.0000     34.2600
 Warning: no grid points on interval from    -119.0000     34.2600 to    -119.0000     34.2625
 Warning: no grid points on interval from    -119.0000     34.2625 to    -119.0000     34.2650
 Warning: no grid points on interval from    -119.0000     34.2650 to    -119.0000     34.2675
 Warning: no grid points on interval from    -119.0000     34.2675 to    -119.0000     34.2700
 Warning: no grid points on interval from    -119.0000     34.2700 to    -119.0000     34.2725
 Warning: no grid points on interval from    -119.0000     34.2725 to    -119.0000     34.2750
 Warning: no grid points on interval from    -119.0000     34.2750 to    -119.0000     34.2775
 Warning: no grid points on interval from    -119.0000     34.2775 to    -119.0000     34.2800
 Warning: no grid points on interval from    -119.0000     34.2800 to    -119.0000     34.2825
 Warning: no grid points on interval from    -119.0000     34.2825 to    -119.0000     34.2850
 Warning: no grid points on interval from    -119.0000     34.2850 to    -119.0000     34.2875
 Warning: no grid points on interval from    -119.0000     34.2875 to    -119.0000     34.2900
 Warning: no grid points on interval from    -119.0000     34.2900 to    -119.0000     34.2925
 Warning: no grid points on interval from    -119.0000     34.2925 to    -119.0000     34.2950
 Warning: no grid points on interval from    -119.0000     34.2950 to    -119.0000     34.2975
 Warning: no grid points on interval from    -119.0000     34.2975 to    -119.0000     34.3000
 Warning: no grid points on interval from    -119.0000     34.3000 to    -119.0000     34.3025
 Warning: no grid points on interval from    -119.0000     34.3025 to    -119.0000     34.3050
 Warning: no grid points on interval from    -119.0000     34.3050 to    -119.0000     34.3075
 Warning: no grid points on interval from    -119.0000     34.3075 to    -119.0000     34.3100
 Warning: no grid points on interval from    -119.0000     34.3100 to    -119.0000     34.3125
 Warning: no grid points on interval from    -119.0000     34.3125 to    -119.0000     34.3150
 Warning: no grid points on interval from    -119.0000     34.3150 to    -119.0000     34.3175
 Warning: no grid points on interval from    -119.0000     34.3175 to    -119.0000     34.3200
 Warning: no grid points on interval from    -119.0000     34.3200 to    -119.0000     34.3225
 Warning: no grid points on interval from    -119.0000     34.3225 to    -119.0000     34.3250
 Warning: no grid points on interval from    -119.0000     34.3250 to    -119.0000     34.3275
 Warning: no grid points on interval from    -119.0000     34.3275 to    -119.0000     34.3300
 Warning: no grid points on interval from    -119.0000     34.3300 to    -119.0000     34.3325
 Warning: no grid points on interval from    -119.0000     34.3325 to    -119.0000     34.3350
 Warning: no grid points on interval from    -119.0000     34.3350 to    -119.0000     34.3375
 Warning: no grid points on interval from    -119.0000     34.3375 to    -119.0000     34.3400
 Warning: no grid points on interval from    -119.0000     34.3400 to    -119.0000     34.3425
 Warning: no grid points on interval from    -119.0000     34.3425 to    -119.0000     34.3450
 Warning: no grid points on interval from    -119.0000     34.3450 to    -119.0000     34.3475
 Warning: no grid points on interval from    -119.0000     34.3475 to    -119.0000     34.3500
 Warning: no grid points on interval from    -119.0000     34.3500 to    -119.0000     34.3525
 Warning: no grid points on interval from    -119.0000     34.3525 to    -119.0000     34.3550
 Warning: no grid points on interval from    -119.0000     34.3550 to    -119.0000     34.3575
 Warning: no grid points on interval from    -119.0000     34.3575 to    -119.0000     34.3600
 Warning: no grid points on interval from    -119.0000     34.3600 to    -119.0000     34.3625
 Warning: no grid points on interval from    -119.0000     34.3625 to    -119.0000     34.3650
 Warning: no grid points on interval from    -119.0000     34.3650 to    -119.0000     34.3675
 Warning: no grid points on interval from    -119.0000     34.3675 to    -119.0000     34.3700
 Warning: no grid points on interval from    -119.0000     34.3700 to    -119.0000     34.3725
 Warning: no grid points on interval from    -119.0000     34.3725 to    -119.0000     34.3750
 Warning: no grid points on interval from    -119.0000     34.3750 to    -119.0000     34.3775
 Warning: no grid points on interval from    -119.0000     34.3775 to    -119.0000     34.3800
 Warning: no grid points on interval from    -119.0000     34.3800 to    -119.0000     34.3825
 Warning: no grid points on interval from    -119.0000     34.3825 to    -119.0000     34.3850
 Warning: no grid points on interval from    -119.0000     34.3850 to    -119.0000     34.3875
 Warning: no grid points on interval from    -119.0000     34.3875 to    -119.0000     34.3900
 Warning: no grid points on interval from    -119.0000     34.3900 to    -119.0000     34.3925
 Warning: no grid points on interval from    -119.0000     34.3925 to    -119.0000     34.3950
 Warning: no grid points on interval from    -119.0000     34.3950 to    -119.0000     34.3975
 Warning: no grid points on interval from    -119.0000     34.3975 to    -119.0000     34.4000
 Warning: no grid points on interval from    -119.0000     34.4000 to    -119.0000     34.4025
 Warning: no grid points on interval from    -119.0000     34.4025 to    -119.0000     34.4050
 Warning: no grid points on interval from    -119.0000     34.4050 to    -119.0000     34.4075
 Warning: no grid points on interval from    -119.0000     34.4075 to    -119.0000     34.4100
 Warning: no grid points on interval from    -119.0000     34.4100 to    -119.0000     34.4125
 Warning: no grid points on interval from    -119.0000     34.4125 to    -119.0000     34.4150
 Warning: no grid points on interval from    -119.0000     34.4150 to    -119.0000     34.4175
 Warning: no grid points on interval from    -119.0000     34.4175 to    -119.0000     34.4200
 Warning: no grid points on interval from    -119.0000     34.4200 to    -119.0000     34.4225
 Warning: no grid points on interval from    -119.0000     34.4225 to    -119.0000     34.4250
 Warning: no grid points on interval from    -119.0000     34.4250 to    -119.0000     34.4275
 Warning: no grid points on interval from    -119.0000     34.4275 to    -119.0000     34.4300
 Warning: no grid points on interval from    -119.0000     34.4300 to    -119.0000     34.4325
 Warning: no grid points on interval from    -119.0000     34.4325 to    -119.0000     34.4350
 Warning: no grid points on interval from    -119.0000     34.4350 to    -119.0000     34.4375
 Warning: no grid points on interval from    -119.0000     34.4375 to    -119.0000     34.4400
 Warning: no grid points on interval from    -119.0000     34.4400 to    -119.0000     34.4425
 Warning: no grid points on interval from    -119.0000     34.4425 to    -119.0000     34.4450
 Warning: no grid points on interval from    -119.0000     34.4450 to    -119.0000     34.4475
 Warning: no grid points on interval from    -119.0000     34.4475 to    -119.0000     34.4500
 Warning: no grid points on interval from    -119.0000     34.4500 to    -119.0000     34.4525
 Warning: no grid points on interval from    -119.0000     34.4525 to    -119.0000     34.4550
 Warning: no grid points on interval from    -119.0000     34.4550 to    -119.0000     34.4575
 Warning: no grid points on interval from    -119.0000     34.4575 to    -119.0000     34.4600
 Warning: no grid points on interval from    -119.0000     34.4600 to    -119.0000     34.4625
 Warning: no grid points on interval from    -119.0000     34.4625 to    -119.0000     34.4650
 Warning: no grid points on interval from    -119.0000     34.4650 to    -119.0000     34.4675
 Warning: no grid points on interval from    -119.0000     34.4675 to    -119.0000     34.4700
 Warning: no grid points on interval from    -119.0000     34.4700 to    -119.0000     34.4725
 Warning: no grid points on interval from    -119.0000     34.4725 to    -119.0000     34.4750
 Warning: no grid points on interval from    -119.0000     34.4750 to    -119.0000     34.4775
 Warning: no grid points on interval from    -119.0000     34.4775 to    -119.0000     34.4800
 Warning: no grid points on interval from    -119.0000     34.4800 to    -119.0000     34.4825
 Warning: no grid points on interval from    -119.0000     34.4825 to    -119.0000     34.4850
 Warning: no grid points on interval from    -119.0000     34.4850 to    -119.0000     34.4875
 Warning: no grid points on interval from    -119.0000     34.4875 to    -119.0000     34.4900
 Warning: no grid points on interval from    -119.0000     34.4900 to    -119.0000     34.4925
 Warning: no grid points on interval from    -119.0000     34.4925 to    -119.0000     34.4950
 Warning: no grid points on interval from    -119.0000     34.4950 to    -119.0000     34.4975
 Warning: no grid points on interval from    -119.0000     34.4975 to    -119.0000     34.5000
 Warning: no grid points on interval from    -119.0000     34.5000 to    -119.0025     34.5000
 Warning: no grid points on interval from    -119.0025     34.5000 to    -119.0050     34.5000
 Warning: no grid points on interval from    -119.0050     34.5000 to    -119.0075     34.5000
 Warning: no grid points on interval from    -119.0075     34.5000 to    -119.0100     34.5000
 Warning: no grid points on interval from    -119.0100     34.5000 to    -119.0125     34.5000
 Warning: no grid points on interval from    -119.0125     34.5000 to    -119.0150     34.5000
 Warning: no grid points on interval from    -119.0150     34.5000 to    -119.0175     34.5000
 Warning: no grid points on interval from    -119.0175     34.5000 to    -119.0200     34.5000
 Warning: no grid points on interval from    -119.0200     34.5000 to    -119.0225     34.5000
 Warning: no grid points on interval from    -119.0225     34.5000 to    -119.0250     34.5000
 Warning: no grid points on interval from    -119.0250     34.5000 to    -119.0275     34.5000
 Warning: no grid points on interval from    -119.0275     34.5000 to    -119.0300     34.5000
 Warning: no grid points on interval from    -119.0300     34.5000 to    -119.0325     34.5000
 Warning: no grid points on interval from    -119.0325     34.5000 to    -119.0350     34.5000
 Warning: no grid points on interval from    -119.0350     34.5000 to    -119.0375     34.5000
 Warning: no grid points on interval from    -119.0375     34.5000 to    -119.0400     34.5000
 Warning: no grid points on interval from    -119.0400     34.5000 to    -119.0425     34.5000
 Warning: no grid points on interval from    -119.0425     34.5000 to    -119.0450     34.5000
 Warning: no grid points on interval from    -119.0450     34.5000 to    -119.0475     34.5000
 Warning: no grid points on interval from    -119.0475     34.5000 to    -119.0500     34.5000
 Warning: no grid points on interval from    -119.0500     34.5000 to    -119.0525     34.5000
 Warning: no grid points on interval from    -119.0525     34.5000 to    -119.0550     34.5000
 Warning: no grid points on interval from    -119.0550     34.5000 to    -119.0575     34.5000
 Warning: no grid points on interval from    -119.0575     34.5000 to    -119.0600     34.5000
 Warning: no grid points on interval from    -119.0600     34.5000 to    -119.0625     34.5000
 Warning: no grid points on interval from    -119.0625     34.5000 to    -119.0650     34.5000
 Warning: no grid points on interval from    -119.0650     34.5000 to    -119.0675     34.5000
 Warning: no grid points on interval from    -119.0675     34.5000 to    -119.0700     34.5000
 Warning: no grid points on interval from    -119.0700     34.5000 to    -119.0725     34.5000
 Warning: no grid points on interval from    -119.0725     34.5000 to    -119.0750     34.5000
 Warning: no grid points on interval from    -119.0750     34.5000 to    -119.0775     34.5000
 Warning: no grid points on interval from    -119.0775     34.5000 to    -119.0800     34.5000
 Warning: no grid points on interval from    -119.0800     34.5000 to    -119.0825     34.5000
 Warning: no grid points on interval from    -119.0825     34.5000 to    -119.0850     34.5000
 Warning: no grid points on interval from    -119.0850     34.5000 to    -119.0875     34.5000
 Warning: no grid points on interval from    -119.0875     34.5000 to    -119.0900     34.5000
 Warning: no grid points on interval from    -119.0900     34.5000 to    -119.0925     34.5000
 Warning: no grid points on interval from    -119.0925     34.5000 to    -119.0950     34.5000
 Warning: no grid points on interval from    -119.0950     34.5000 to    -119.0975     34.5000
 Warning: no grid points on interval from    -119.0975     34.5000 to    -119.1000     34.5000
 Warning: no grid points on interval from    -119.1000     34.5000 to    -119.1025     34.5000
 Warning: no grid points on interval from    -119.1025     34.5000 to    -119.1050     34.5000
 Warning: no grid points on interval from    -119.1050     34.5000 to    -119.1075     34.5000
 Warning: no grid points on interval from    -119.1075     34.5000 to    -119.1100     34.5000
 Warning: no grid points on interval from    -119.1100     34.5000 to    -119.1125     34.5000
 Warning: no grid points on interval from    -119.1125     34.5000 to    -119.1150     34.5000
 Warning: no grid points on interval from    -119.1150     34.5000 to    -119.1175     34.5000
 Warning: no grid points on interval from    -119.1175     34.5000 to    -119.1200     34.5000
 Warning: no grid points on interval from    -119.1200     34.5000 to    -119.1225     34.5000
 Warning: no grid points on interval from    -119.1225     34.5000 to    -119.1250     34.5000
 Warning: no grid points on interval from    -119.1250     34.5000 to    -119.1275     34.5000
 Warning: no grid points on interval from    -119.1275     34.5000 to    -119.1300     34.5000
 Warning: no grid points on interval from    -119.1300     34.5000 to    -119.1325     34.5000
 Warning: no grid points on interval from    -119.1325     34.5000 to    -119.1350     34.5000
 Warning: no grid points on interval from    -119.1350     34.5000 to    -119.1375     34.5000
 Warning: no grid points on interval from    -119.1375     34.5000 to    -119.1400     34.5000
 Warning: no grid points on interval from    -119.1400     34.5000 to    -119.1425     34.5000
 Warning: no grid points on interval from    -119.1425     34.5000 to    -119.1450     34.5000
 Warning: no grid points on interval from    -119.1450     34.5000 to    -119.1475     34.5000
 Warning: no grid points on interval from    -119.1475     34.5000 to    -119.1500     34.5000
 Warning: no grid points on interval from    -119.1500     34.5000 to    -119.1525     34.5000
 Warning: no grid points on interval from    -119.1525     34.5000 to    -119.1550     34.5000
 Warning: no grid points on interval from    -119.1550     34.5000 to    -119.1575     34.5000
 Warning: no grid points on interval from    -119.1575     34.5000 to    -119.1600     34.5000
 Warning: no grid points on interval from    -119.1600     34.5000 to    -119.1625     34.5000
 Warning: no grid points on interval from    -119.1625     34.5000 to    -119.1650     34.5000
 Warning: no grid points on interval from    -119.1650     34.5000 to    -119.1675     34.5000
 Warning: no grid points on interval from    -119.1675     34.5000 to    -119.1700     34.5000
 Warning: no grid points on interval from    -119.1700     34.5000 to    -119.1725     34.5000
 Warning: no grid points on interval from    -119.1725     34.5000 to    -119.1750     34.5000
 Warning: no grid points on interval from    -119.1750     34.5000 to    -119.1775     34.5000
[...]
 Warning: no grid points on interval from    -120.5000     34.1625 to    -120.5000     34.1600
 Warning: no grid points on interval from    -120.5000     34.1600 to    -120.5000     34.1575
 Warning: no grid points on interval from    -120.5000     34.1575 to    -120.5000     34.1550
 Warning: no grid points on interval from    -120.5000     34.1550 to    -120.5000     34.1525
 Warning: no grid points on interval from    -120.5000     34.1475 to    -120.5000     34.1450
 Warning: no grid points on interval from    -120.5000     34.1450 to    -120.5000     34.1425
 Warning: no grid points on interval from    -120.5000     34.1425 to    -120.5000     34.1400
 Warning: no grid points on interval from    -120.5000     34.1400 to    -120.5000     34.1375
 Warning: no grid points on interval from    -120.5000     34.1375 to    -120.5000     34.1350
 Warning: no grid points on interval from    -120.5000     34.1350 to    -120.5000     34.1325
 Warning: no grid points on interval from    -120.5000     34.1325 to    -120.5000     34.1300
 Warning: no grid points on interval from    -120.5000     34.1300 to    -120.5000     34.1275
 Warning: no grid points on interval from    -120.5000     34.1225 to    -120.5000     34.1200
 Warning: no grid points on interval from    -120.5000     34.1200 to    -120.5000     34.1175
 Warning: no grid points on interval from    -120.5000     34.1175 to    -120.5000     34.1150
 Warning: no grid points on interval from    -120.5000     34.1150 to    -120.5000     34.1125
 Warning: no grid points on interval from    -120.5000     34.1125 to    -120.5000     34.1100
 Warning: no grid points on interval from    -120.5000     34.1100 to    -120.5000     34.1075
 Warning: no grid points on interval from    -120.5000     34.1075 to    -120.5000     34.1050
 Warning: no grid points on interval from    -120.5000     34.1050 to    -120.5000     34.1025
 Warning: no grid points on interval from    -120.5000     34.0975 to    -120.5000     34.0950
 Warning: no grid points on interval from    -120.5000     34.0950 to    -120.5000     34.0925
 Warning: no grid points on interval from    -120.5000     34.0925 to    -120.5000     34.0900
 Warning: no grid points on interval from    -120.5000     34.0900 to    -120.5000     34.0875
 Warning: no grid points on interval from    -120.5000     34.0875 to    -120.5000     34.0850
 Warning: no grid points on interval from    -120.5000     34.0850 to    -120.5000     34.0825
 Warning: no grid points on interval from    -120.5000     34.0825 to    -120.5000     34.0800
 Warning: no grid points on interval from    -120.5000     34.0800 to    -120.5000     34.0775
 Warning: no grid points on interval from    -120.5000     34.0725 to    -120.5000     34.0700
 Warning: no grid points on interval from    -120.5000     34.0700 to    -120.5000     34.0675
 Warning: no grid points on interval from    -120.5000     34.0675 to    -120.5000     34.0650
 Warning: no grid points on interval from    -120.5000     34.0650 to    -120.5000     34.0625
 Warning: no grid points on interval from    -120.5000     34.0625 to    -120.5000     34.0600
 Warning: no grid points on interval from    -120.5000     34.0600 to    -120.5000     34.0575
 Warning: no grid points on interval from    -120.5000     34.0575 to    -120.5000     34.0550
 Warning: no grid points on interval from    -120.5000     34.0550 to    -120.5000     34.0525
 Warning: no grid points on interval from    -120.5000     34.0475 to    -120.5000     34.0450
 Warning: no grid points on interval from    -120.5000     34.0450 to    -120.5000     34.0425
 Warning: no grid points on interval from    -120.5000     34.0425 to    -120.5000     34.0400
 Warning: no grid points on interval from    -120.5000     34.0400 to    -120.5000     34.0375
 Warning: no grid points on interval from    -120.5000     34.0375 to    -120.5000     34.0350
 Warning: no grid points on interval from    -120.5000     34.0350 to    -120.5000     34.0325
 Warning: no grid points on interval from    -120.5000     34.0325 to    -120.5000     34.0300
 Warning: no grid points on interval from    -120.5000     34.0300 to    -120.5000     34.0275
 Warning: no grid points on interval from    -120.5000     34.0225 to    -120.5000     34.0200
 Warning: no grid points on interval from    -120.5000     34.0200 to    -120.5000     34.0175
 Warning: no grid points on interval from    -120.5000     34.0175 to    -120.5000     34.0150
 Warning: no grid points on interval from    -120.5000     34.0150 to    -120.5000     34.0125
 Warning: no grid points on interval from    -120.5000     34.0125 to    -120.5000     34.0100
 Warning: no grid points on interval from    -120.5000     34.0100 to    -120.5000     34.0075
 Warning: no grid points on interval from    -120.5000     34.0075 to    -120.5000     34.0050
 Warning: no grid points on interval from    -120.5000     34.0050 to    -120.5000     34.0025
 Warning: no grid points on interval from    -120.5000     33.9975 to    -120.5000     33.9950
 Warning: no grid points on interval from    -120.5000     33.9950 to    -120.5000     33.9925
 Warning: no grid points on interval from    -120.5000     33.9925 to    -120.5000     33.9900
 Warning: no grid points on interval from    -120.5000     33.9900 to    -120.5000     33.9875
 Warning: no grid points on interval from    -120.5000     33.9875 to    -120.5000     33.9850
 Warning: no grid points on interval from    -120.5000     33.9850 to    -120.5000     33.9825
 Warning: no grid points on interval from    -120.5000     33.9825 to    -120.5000     33.9800
 Warning: no grid points on interval from    -120.5000     33.9800 to    -120.5000     33.9775
 Warning: no grid points on interval from    -120.5000     33.9725 to    -120.5000     33.9700
 Warning: no grid points on interval from    -120.5000     33.9700 to    -120.5000     33.9675
 Warning: no grid points on interval from    -120.5000     33.9675 to    -120.5000     33.9650
 Warning: no grid points on interval from    -120.5000     33.9650 to    -120.5000     33.9625
 Warning: no grid points on interval from    -120.5000     33.9625 to    -120.5000     33.9600
 Warning: no grid points on interval from    -120.5000     33.9600 to    -120.5000     33.9575
 Warning: no grid points on interval from    -120.5000     33.9575 to    -120.5000     33.9550
 Warning: no grid points on interval from    -120.5000     33.9550 to    -120.5000     33.9525
 Warning: no grid points on interval from    -120.5000     33.9475 to    -120.5000     33.9450
 Warning: no grid points on interval from    -120.5000     33.9450 to    -120.5000     33.9425
 Warning: no grid points on interval from    -120.5000     33.9425 to    -120.5000     33.9400
 Warning: no grid points on interval from    -120.5000     33.9400 to    -120.5000     33.9375
 Warning: no grid points on interval from    -120.5000     33.9375 to    -120.5000     33.9350
 Warning: no grid points on interval from    -120.5000     33.9350 to    -120.5000     33.9325
 Warning: no grid points on interval from    -120.5000     33.9325 to    -120.5000     33.9300
 Warning: no grid points on interval from    -120.5000     33.9300 to    -120.5000     33.9275
 Warning: no grid points on interval from    -120.5000     33.9225 to    -120.5000     33.9200
 Warning: no grid points on interval from    -120.5000     33.9200 to    -120.5000     33.9175
 Warning: no grid points on interval from    -120.5000     33.9175 to    -120.5000     33.9150
 Warning: no grid points on interval from    -120.5000     33.9150 to    -120.5000     33.9125
 Warning: no grid points on interval from    -120.5000     33.9125 to    -120.5000     33.9100
 Warning: no grid points on interval from    -120.5000     33.9100 to    -120.5000     33.9075
 Warning: no grid points on interval from    -120.5000     33.9075 to    -120.5000     33.9050
 Warning: no grid points on interval from    -120.5000     33.9050 to    -120.5000     33.9025
 Warning: no grid points on interval from    -120.5000     33.8975 to    -120.5000     33.8950
 Warning: no grid points on interval from    -120.5000     33.8950 to    -120.5000     33.8925
 Warning: no grid points on interval from    -120.5000     33.8925 to    -120.5000     33.8900
 Warning: no grid points on interval from    -120.5000     33.8900 to    -120.5000     33.8875
 Warning: no grid points on interval from    -120.5000     33.8875 to    -120.5000     33.8850
 Warning: no grid points on interval from    -120.5000     33.8850 to    -120.5000     33.8825
 Warning: no grid points on interval from    -120.5000     33.8825 to    -120.5000     33.8800
 Warning: no grid points on interval from    -120.5000     33.8800 to    -120.5000     33.8775
 Warning: no grid points on interval from    -120.5000     33.8725 to    -120.5000     33.8700
 Warning: no grid points on interval from    -120.5000     33.8700 to    -120.5000     33.8675
 Warning: no grid points on interval from    -120.5000     33.8675 to    -120.5000     33.8650
 Warning: no grid points on interval from    -120.5000     33.8650 to    -120.5000     33.8625
 Warning: no grid points on interval from    -120.5000     33.8625 to    -120.5000     33.8600
 Warning: no grid points on interval from    -120.5000     33.8600 to    -120.5000     33.8575
 Warning: no grid points on interval from    -120.5000     33.8575 to    -120.5000     33.8550
 Warning: no grid points on interval from    -120.5000     33.8550 to    -120.5000     33.8525
 Warning: no grid points on interval from    -120.5000     33.8475 to    -120.5000     33.8450
 Warning: no grid points on interval from    -120.5000     33.8450 to    -120.5000     33.8425
 Warning: no grid points on interval from    -120.5000     33.8425 to    -120.5000     33.8400
 Warning: no grid points on interval from    -120.5000     33.8400 to    -120.5000     33.8375
 Warning: no grid points on interval from    -120.5000     33.8375 to    -120.5000     33.8350
 Warning: no grid points on interval from    -120.5000     33.8350 to    -120.5000     33.8325
 Warning: no grid points on interval from    -120.5000     33.8325 to    -120.5000     33.8300
 Warning: no grid points on interval from    -120.5000     33.8300 to    -120.5000     33.8275
 Warning: no grid points on interval from    -120.5000     33.8225 to    -120.5000     33.8200
 Warning: no grid points on interval from    -120.5000     33.8200 to    -120.5000     33.8175
 Warning: no grid points on interval from    -120.5000     33.8175 to    -120.5000     33.8150
 Warning: no grid points on interval from    -120.5000     33.8150 to    -120.5000     33.8125
 Warning: no grid points on interval from    -120.5000     33.8125 to    -120.5000     33.8100
 Warning: no grid points on interval from    -120.5000     33.8100 to    -120.5000     33.8075
 Warning: no grid points on interval from    -120.5000     33.8075 to    -120.5000     33.8050
 Warning: no grid points on interval from    -120.5000     33.8050 to    -120.5000     33.8025
 Warning: no grid points on interval from    -120.5000     33.7975 to    -120.5000     33.7950
 Warning: no grid points on interval from    -120.5000     33.7950 to    -120.5000     33.7925
 Warning: no grid points on interval from    -120.5000     33.7925 to    -120.5000     33.7900
 Warning: no grid points on interval from    -120.5000     33.7900 to    -120.5000     33.7875
 Warning: no grid points on interval from    -120.5000     33.7875 to    -120.5000     33.7850
 Warning: no grid points on interval from    -120.5000     33.7850 to    -120.5000     33.7825
 Warning: no grid points on interval from    -120.5000     33.7825 to    -120.5000     33.7800
 Warning: no grid points on interval from    -120.5000     33.7800 to    -120.5000     33.7775
 Warning: no grid points on interval from    -120.5000     33.7725 to    -120.5000     33.7700
 Warning: no grid points on interval from    -120.5000     33.7700 to    -120.5000     33.7675
 Warning: no grid points on interval from    -120.5000     33.7675 to    -120.5000     33.7650
 Warning: no grid points on interval from    -120.5000     33.7650 to    -120.5000     33.7625
 Warning: no grid points on interval from    -120.5000     33.7625 to    -120.5000     33.7600
 Warning: no grid points on interval from    -120.5000     33.7600 to    -120.5000     33.7575
 Warning: no grid points on interval from    -120.5000     33.7575 to    -120.5000     33.7550
 Warning: no grid points on interval from    -120.5000     33.7550 to    -120.5000     33.7525
    
 !
    
 GEN3
    
 !
    
 !***********************************************************
    
 !
    
 !
    
 !generate binary Matlab-file for block-output
    
 BLOCK  'COMPGRID' NOHEAD 'HsSB.txt' LAYOUT 3 HS
    
 BLOCK  'COMPGRID' NOHEAD 'DirSB.txt' LAYOUT 3 DIR
    
 !
    
 TEST 1,0
    
 COMPUTE

----------------------------------------------------------------
                  COMPUTATIONAL PART OF SWAN
----------------------------------------------------------------

 Gridresolution       : MXC              61 MYC             31
                      : MCGRD          1445
                      : MSC              32 MDC             36
                      : MTC               1
                      : NSTATC            0 ITERMX          50
 Propagation flags    : ITFRE             1 IREFR            1
 Source term flags    : IBOT              0 ISURF            1
                      : IWCAP             1 IWIND            3
                      : ITRIAD            0 IQUAD            2
                      : IVEG              0 ITURBV           0
                      : IMUD              0
 Spatial step         : DX       0.2500E-01 DY      0.2500E-01
 Spectral bin         : df/f     0.1000E+00 DDIR    0.1000E+02
 Physical constants   : GRAV     0.9810E+01 RHO     0.1025E+04
 Wind input           : WSPEED   0.1000E+01 DIR     0.1800E+03
 Tail parameters      : E(f)     0.4000E+01 E(k)    0.2500E+01
                      : A(f)     0.5000E+01 A(k)    0.3000E+01
 Accuracy parameters  : DREL     0.1000E-01 NPNTS   0.9950E+02
                      : DHABS    0.5000E-02 CURVAT  0.5000E-02
                      : GRWMX    0.1000E+00
 Drying/flooding      : LEVEL    0.0000E+00 DEPMIN  0.5000E-01
 The Cartesian convention for wind and wave directions is used
 Scheme for geographic propagation is SORDUP
 Scheme geogr. space  : PROPSC            2 ICMAX            5
 Scheme spectral space: CSS      0.5000E+00 CDD     0.5000E+00
 Current is off
 Quadruplets          : IQUAD             2
                      : LAMBDA   0.2500E+00 CNL4    0.3000E+08
                      : CSH1     0.5500E+01 CSH2    0.8330E+00
                      : CSH3    -0.1250E+01
 Maximum Ursell nr for Snl4 :    0.1000E+02
 Triads is off
 Bottom friction is off
 Vegetation is off
 Turbulence is off
 Fluid mud is off
 W-cap Komen (`84)    : EMPCOF   0.2360E-04 APM     0.3020E-02
                      : DELTA    0.1000E+01
 Battjes&Janssen (`78): ALPHA    0.1000E+01 GAMMA   0.7300E+00
 Set-up is off
 Diffraction is off
 Janssen (`89,`90)    : ALPHA    0.1000E-01 KAPPA   0.4100E+00
 Janssen (`89,`90)    : RHOA     0.1280E+01 RHOW    0.1025E+04

 1st and 2nd gen. wind: CF10     0.1880E+03 CF20    0.5900E+00
                      : CF30     0.1200E+00 CF40    0.2500E+03
                      : CF50     0.2300E-02 CF60   -0.2230E+00
                      : CF70     0.0000E+00 CF80   -0.5600E+00
                      : RHOAW    0.1249E-02 EDMLPM  0.3600E-02
                      : CDRAG    0.1230E-02 UMIN    0.1000E+01
                      : LIM_PM   0.1300E+00

  ---------------------------------------------------------------
  First guess by 2nd generation model flags for first iteration:
  ITER       1 GRWMX      0.1000E+23 ALFA       0.0000E+00
  IWIND      2 IWCAP      0 IQUAD      0
  ITRIAD     0 IBOT       0 ISURF      1
  IVEG       0 ITURBV     0 IMUD       0
  ---------------------------------------------------------------
 iteration    1; sweep 1
 iteration    1; sweep 2
 iteration    1; sweep 3
 iteration    1; sweep 4
 not possible to compute, first iteration

  ---------------------------------------------------------------
  Options given by user are activated for proceeding calculation:
  ITER       2 GRWMX      0.1000E+00 ALFA       0.0000E+00
  IWIND      3 IWCAP      1 IQUAD      2
  ITRIAD     0 IBOT       0 ISURF      1
  IVEG       0 ITURBV     0 IMUD       0
  ---------------------------------------------------------------
 iteration    2; sweep 1
 iteration    2; sweep 2
 iteration    2; sweep 3
 iteration    2; sweep 4
 accuracy OK in  81.93 % of wet grid points ( 99.50 % required)

 iteration    3; sweep 1
 iteration    3; sweep 2
 iteration    3; sweep 3
 iteration    3; sweep 4
 accuracy OK in   1.95 % of wet grid points ( 99.50 % required)

 iteration    4; sweep 1
 iteration    4; sweep 2
 iteration    4; sweep 3
 iteration    4; sweep 4
 accuracy OK in  75.40 % of wet grid points ( 99.50 % required)

 iteration    5; sweep 1
 iteration    5; sweep 2
 iteration    5; sweep 3
 iteration    5; sweep 4
 accuracy OK in  87.07 % of wet grid points ( 99.50 % required)

 iteration    6; sweep 1
 iteration    6; sweep 2
 iteration    6; sweep 3
 iteration    6; sweep 4
 accuracy OK in  89.78 % of wet grid points ( 99.50 % required)

 iteration    7; sweep 1
 iteration    7; sweep 2
 iteration    7; sweep 3
 iteration    7; sweep 4
 accuracy OK in  93.19 % of wet grid points ( 99.50 % required)

 iteration    8; sweep 1
 iteration    8; sweep 2
 iteration    8; sweep 3
 iteration    8; sweep 4
 accuracy OK in  95.69 % of wet grid points ( 99.50 % required)

 iteration    9; sweep 1
 iteration    9; sweep 2
 iteration    9; sweep 3
 iteration    9; sweep 4
 accuracy OK in  99.72 % of wet grid points ( 99.50 % required)

  ** WARNING : Differences in wave height at the boundary
 Relative difference between input and computation >=   0.10
                         Hs[m]      Hs[m]      Hs[-]
     ix    iy  index   (input) (computed) (relative)
  --------------------------------------------------
    61    12   1444       0.22       0.28       0.29
    61    11   1443       0.22       0.27       0.26
    61    10   1442       0.22       0.27       0.22
    61     9   1441       0.23       0.27       0.16
    61     8   1440       0.24       0.27       0.13
    10     1    257       1.89       1.69       0.11
    11     1    286       1.88       1.62       0.14
    12     1    315       1.87       1.52       0.19
    13     1    343       1.86       1.42       0.24
    14     1    370       1.85       1.31       0.29
    15     1    395       1.79       1.21       0.32
    16     1    420       1.69       1.12       0.34
    17     1    444       1.59       1.06       0.34
    18     1    469       1.48       1.00       0.32
    19     1    494       1.37       0.96       0.30
    20     1    518       1.24       0.91       0.26
    21     1    545       1.10       0.86       0.22
    22     1    572       1.05       0.81       0.23
    23     1    599       1.00       0.75       0.24
    24     1    627       0.94       0.70       0.25
    25     1    655       0.88       0.66       0.26
    26     1    681       0.82       0.61       0.25
    27     1    705       0.75       0.58       0.23
    28     1    728       0.70       0.55       0.21
    29     1    751       0.67       0.52       0.22
    30     1    774       0.64       0.50       0.23
    31     1    797       0.62       0.48       0.22
    32     1    820       0.59       0.46       0.21
    33     1    843       0.56       0.45       0.19
    34     1    867       0.52       0.44       0.16
    35     1    893       0.50       0.43       0.15
    36     1    919       0.49       0.42       0.14
    37     1    945       0.47       0.42       0.12
    38     1    970       0.46       0.41       0.10

    
 STOP
