1

                    Execution started at 20160815.190424         



                    ---------------------------------------
                                     SWAN
                    SIMULATION OF WAVES IN NEAR SHORE AREAS
                             VERSION NUMBER 41.01               
                    ---------------------------------------


    
 !*************************HEADING************************
    
 PROJ 'OC' ''
    
 !
    
 !Orange County swell chart.
    
 !
    
 !Data: Nested from Southern California
    
 !
    
 !********************MODEL INPUT*************************
    
 !
    
 ! SET INRHOG 1
    
 !
    
 !COORDINATES SPHE
    
 !
    
 CGRID -117.75  32.5   0. .75  1.0 30 40 CIRCLE 36 0.0521 1. 31
 Resolution in sigma-space: df/f =  0.1000
    
 !
    
 INPGRID BOTTOM -121 32 0. 4799 3599 .0008333333333 .0008333333333 EXC -99.
    
 !
    
 READINP BOTTOM 1. 'SoCal_high.txt' 1 0 FREE
 ** Warning          : Point removed from computational grid
Point with index (    25,     8) was removed from computational grid because it is an isolated wet point or is part of a 1D configuration or 1D connection.
 ** Warning          : Point removed from computational grid
Point with index (    24,     9) was removed from computational grid because it is an isolated wet point or is part of a 1D configuration or 1D connection.
 ** Warning          : Point removed from computational grid
Point with index (    21,    12) was removed from computational grid because it is an isolated wet point or is part of a 1D configuration or 1D connection.
 ** Warning          : Point removed from computational grid
Point with index (    21,    18) was removed from computational grid because it is an isolated wet point or is part of a 1D configuration or 1D connection.
 ** Warning          : Point removed from computational grid
Point with index (     1,    41) was removed from computational grid, because it is part of a 1D configuration or 1D connection.
 ** Warning          : Point removed from computational grid
Point with index (    22,    12) was removed from computational grid, because it is part of a 1D configuration or 1D connection.
 ** Warning          : Point removed from computational grid
Point with index (    23,    10) was removed from computational grid, because it is part of a 1D configuration or 1D connection.
 ** Warning          : Point removed from computational grid
Point with index (    24,    10) was removed from computational grid, because it is part of a 1D configuration or 1D connection.
 ** Warning          : Point removed from computational grid
Point with index (    26,     6) was removed from computational grid, because it is part of a 1D configuration or 1D connection.
 ** Warning          : Point removed from computational grid
Point with index (    26,     7) was removed from computational grid, because it is part of a 1D configuration or 1D connection.
 ** Warning          : Point removed from computational grid
Point with index (    26,     8) was removed from computational grid, because it is part of a 1D configuration or 1D connection.
    
 !
    
 BOU SHAP JON 3.3 PEAK DSPR DEGR
    
 !
    
 WIND 1.0 180
    
 !
    
 BOUNDNEST NEST 'nestSD' CLOSED
 Warning: no grid points on interval from    -117.7475     32.5000 to    -117.7450     32.5000
 Warning: no grid points on interval from    -117.7450     32.5000 to    -117.7425     32.5000
 Warning: no grid points on interval from    -117.7425     32.5000 to    -117.7400     32.5000
 Warning: no grid points on interval from    -117.7400     32.5000 to    -117.7375     32.5000
 Warning: no grid points on interval from    -117.7375     32.5000 to    -117.7350     32.5000
 Warning: no grid points on interval from    -117.7350     32.5000 to    -117.7325     32.5000
 Warning: no grid points on interval from    -117.7325     32.5000 to    -117.7300     32.5000
 Warning: no grid points on interval from    -117.7300     32.5000 to    -117.7275     32.5000
 Warning: no grid points on interval from    -117.7225     32.5000 to    -117.7200     32.5000
 Warning: no grid points on interval from    -117.7200     32.5000 to    -117.7175     32.5000
 Warning: no grid points on interval from    -117.7175     32.5000 to    -117.7150     32.5000
 Warning: no grid points on interval from    -117.7150     32.5000 to    -117.7125     32.5000
 Warning: no grid points on interval from    -117.7125     32.5000 to    -117.7100     32.5000
 Warning: no grid points on interval from    -117.7100     32.5000 to    -117.7075     32.5000
 Warning: no grid points on interval from    -117.7075     32.5000 to    -117.7050     32.5000
 Warning: no grid points on interval from    -117.7050     32.5000 to    -117.7025     32.5000
 Warning: no grid points on interval from    -117.6975     32.5000 to    -117.6950     32.5000
 Warning: no grid points on interval from    -117.6950     32.5000 to    -117.6925     32.5000
 Warning: no grid points on interval from    -117.6925     32.5000 to    -117.6900     32.5000
 Warning: no grid points on interval from    -117.6900     32.5000 to    -117.6875     32.5000
 Warning: no grid points on interval from    -117.6875     32.5000 to    -117.6850     32.5000
 Warning: no grid points on interval from    -117.6850     32.5000 to    -117.6825     32.5000
 Warning: no grid points on interval from    -117.6825     32.5000 to    -117.6800     32.5000
 Warning: no grid points on interval from    -117.6800     32.5000 to    -117.6775     32.5000
 Warning: no grid points on interval from    -117.6725     32.5000 to    -117.6700     32.5000
 Warning: no grid points on interval from    -117.6700     32.5000 to    -117.6675     32.5000
 Warning: no grid points on interval from    -117.6675     32.5000 to    -117.6650     32.5000
 Warning: no grid points on interval from    -117.6650     32.5000 to    -117.6625     32.5000
 Warning: no grid points on interval from    -117.6625     32.5000 to    -117.6600     32.5000
 Warning: no grid points on interval from    -117.6600     32.5000 to    -117.6575     32.5000
 Warning: no grid points on interval from    -117.6575     32.5000 to    -117.6550     32.5000
 Warning: no grid points on interval from    -117.6550     32.5000 to    -117.6525     32.5000
 Warning: no grid points on interval from    -117.6475     32.5000 to    -117.6450     32.5000
 Warning: no grid points on interval from    -117.6450     32.5000 to    -117.6425     32.5000
 Warning: no grid points on interval from    -117.6425     32.5000 to    -117.6400     32.5000
 Warning: no grid points on interval from    -117.6400     32.5000 to    -117.6375     32.5000
 Warning: no grid points on interval from    -117.6375     32.5000 to    -117.6350     32.5000
 Warning: no grid points on interval from    -117.6350     32.5000 to    -117.6325     32.5000
 Warning: no grid points on interval from    -117.6325     32.5000 to    -117.6300     32.5000
 Warning: no grid points on interval from    -117.6300     32.5000 to    -117.6275     32.5000
 Warning: no grid points on interval from    -117.6225     32.5000 to    -117.6200     32.5000
 Warning: no grid points on interval from    -117.6200     32.5000 to    -117.6175     32.5000
 Warning: no grid points on interval from    -117.6175     32.5000 to    -117.6150     32.5000
 Warning: no grid points on interval from    -117.6150     32.5000 to    -117.6125     32.5000
 Warning: no grid points on interval from    -117.6125     32.5000 to    -117.6100     32.5000
 Warning: no grid points on interval from    -117.6100     32.5000 to    -117.6075     32.5000
 Warning: no grid points on interval from    -117.6075     32.5000 to    -117.6050     32.5000
 Warning: no grid points on interval from    -117.6050     32.5000 to    -117.6025     32.5000
 Warning: no grid points on interval from    -117.5975     32.5000 to    -117.5950     32.5000
 Warning: no grid points on interval from    -117.5950     32.5000 to    -117.5925     32.5000
 Warning: no grid points on interval from    -117.5925     32.5000 to    -117.5900     32.5000
 Warning: no grid points on interval from    -117.5900     32.5000 to    -117.5875     32.5000
 Warning: no grid points on interval from    -117.5875     32.5000 to    -117.5850     32.5000
 Warning: no grid points on interval from    -117.5850     32.5000 to    -117.5825     32.5000
 Warning: no grid points on interval from    -117.5825     32.5000 to    -117.5800     32.5000
 Warning: no grid points on interval from    -117.5800     32.5000 to    -117.5775     32.5000
 Warning: no grid points on interval from    -117.5725     32.5000 to    -117.5700     32.5000
 Warning: no grid points on interval from    -117.5700     32.5000 to    -117.5675     32.5000
 Warning: no grid points on interval from    -117.5675     32.5000 to    -117.5650     32.5000
 Warning: no grid points on interval from    -117.5650     32.5000 to    -117.5625     32.5000
 Warning: no grid points on interval from    -117.5625     32.5000 to    -117.5600     32.5000
 Warning: no grid points on interval from    -117.5600     32.5000 to    -117.5575     32.5000
 Warning: no grid points on interval from    -117.5575     32.5000 to    -117.5550     32.5000
 Warning: no grid points on interval from    -117.5550     32.5000 to    -117.5525     32.5000
 Warning: no grid points on interval from    -117.5475     32.5000 to    -117.5450     32.5000
 Warning: no grid points on interval from    -117.5450     32.5000 to    -117.5425     32.5000
 Warning: no grid points on interval from    -117.5425     32.5000 to    -117.5400     32.5000
 Warning: no grid points on interval from    -117.5400     32.5000 to    -117.5375     32.5000
 Warning: no grid points on interval from    -117.5375     32.5000 to    -117.5350     32.5000
 Warning: no grid points on interval from    -117.5350     32.5000 to    -117.5325     32.5000
 Warning: no grid points on interval from    -117.5325     32.5000 to    -117.5300     32.5000
 Warning: no grid points on interval from    -117.5300     32.5000 to    -117.5275     32.5000
 Warning: no grid points on interval from    -117.5225     32.5000 to    -117.5200     32.5000
 Warning: no grid points on interval from    -117.5200     32.5000 to    -117.5175     32.5000
 Warning: no grid points on interval from    -117.5175     32.5000 to    -117.5150     32.5000
 Warning: no grid points on interval from    -117.5150     32.5000 to    -117.5125     32.5000
 Warning: no grid points on interval from    -117.5125     32.5000 to    -117.5100     32.5000
 Warning: no grid points on interval from    -117.5100     32.5000 to    -117.5075     32.5000
 Warning: no grid points on interval from    -117.5075     32.5000 to    -117.5050     32.5000
 Warning: no grid points on interval from    -117.5050     32.5000 to    -117.5025     32.5000
 Warning: no grid points on interval from    -117.4975     32.5000 to    -117.4950     32.5000
 Warning: no grid points on interval from    -117.4950     32.5000 to    -117.4925     32.5000
 Warning: no grid points on interval from    -117.4925     32.5000 to    -117.4900     32.5000
 Warning: no grid points on interval from    -117.4900     32.5000 to    -117.4875     32.5000
 Warning: no grid points on interval from    -117.4875     32.5000 to    -117.4850     32.5000
 Warning: no grid points on interval from    -117.4850     32.5000 to    -117.4825     32.5000
 Warning: no grid points on interval from    -117.4825     32.5000 to    -117.4800     32.5000
 Warning: no grid points on interval from    -117.4800     32.5000 to    -117.4775     32.5000
 Warning: no grid points on interval from    -117.4725     32.5000 to    -117.4700     32.5000
 Warning: no grid points on interval from    -117.4700     32.5000 to    -117.4675     32.5000
 Warning: no grid points on interval from    -117.4675     32.5000 to    -117.4650     32.5000
 Warning: no grid points on interval from    -117.4650     32.5000 to    -117.4625     32.5000
 Warning: no grid points on interval from    -117.4625     32.5000 to    -117.4600     32.5000
 Warning: no grid points on interval from    -117.4600     32.5000 to    -117.4575     32.5000
 Warning: no grid points on interval from    -117.4575     32.5000 to    -117.4550     32.5000
 Warning: no grid points on interval from    -117.4550     32.5000 to    -117.4525     32.5000
 Warning: no grid points on interval from    -117.4475     32.5000 to    -117.4450     32.5000
 Warning: no grid points on interval from    -117.4450     32.5000 to    -117.4425     32.5000
 Warning: no grid points on interval from    -117.4425     32.5000 to    -117.4400     32.5000
 Warning: no grid points on interval from    -117.4400     32.5000 to    -117.4375     32.5000
 Warning: no grid points on interval from    -117.4375     32.5000 to    -117.4350     32.5000
 Warning: no grid points on interval from    -117.4350     32.5000 to    -117.4325     32.5000
 Warning: no grid points on interval from    -117.4325     32.5000 to    -117.4300     32.5000
 Warning: no grid points on interval from    -117.4300     32.5000 to    -117.4275     32.5000
 Warning: no grid points on interval from    -117.4225     32.5000 to    -117.4200     32.5000
 Warning: no grid points on interval from    -117.4200     32.5000 to    -117.4175     32.5000
 Warning: no grid points on interval from    -117.4175     32.5000 to    -117.4150     32.5000
 Warning: no grid points on interval from    -117.4150     32.5000 to    -117.4125     32.5000
 Warning: no grid points on interval from    -117.4125     32.5000 to    -117.4100     32.5000
 Warning: no grid points on interval from    -117.4100     32.5000 to    -117.4075     32.5000
 Warning: no grid points on interval from    -117.4075     32.5000 to    -117.4050     32.5000
 Warning: no grid points on interval from    -117.4050     32.5000 to    -117.4025     32.5000
 Warning: no grid points on interval from    -117.3975     32.5000 to    -117.3950     32.5000
 Warning: no grid points on interval from    -117.3950     32.5000 to    -117.3925     32.5000
 Warning: no grid points on interval from    -117.3925     32.5000 to    -117.3900     32.5000
 Warning: no grid points on interval from    -117.3900     32.5000 to    -117.3875     32.5000
 Warning: no grid points on interval from    -117.3875     32.5000 to    -117.3850     32.5000
 Warning: no grid points on interval from    -117.3850     32.5000 to    -117.3825     32.5000
 Warning: no grid points on interval from    -117.3825     32.5000 to    -117.3800     32.5000
 Warning: no grid points on interval from    -117.3800     32.5000 to    -117.3775     32.5000
 Warning: no grid points on interval from    -117.3725     32.5000 to    -117.3700     32.5000
 Warning: no grid points on interval from    -117.3700     32.5000 to    -117.3675     32.5000
 Warning: no grid points on interval from    -117.3675     32.5000 to    -117.3650     32.5000
 Warning: no grid points on interval from    -117.3650     32.5000 to    -117.3625     32.5000
 Warning: no grid points on interval from    -117.3625     32.5000 to    -117.3600     32.5000
 Warning: no grid points on interval from    -117.3600     32.5000 to    -117.3575     32.5000
 Warning: no grid points on interval from    -117.3575     32.5000 to    -117.3550     32.5000
 Warning: no grid points on interval from    -117.3550     32.5000 to    -117.3525     32.5000
 Warning: no grid points on interval from    -117.3475     32.5000 to    -117.3450     32.5000
 Warning: no grid points on interval from    -117.3450     32.5000 to    -117.3425     32.5000
 Warning: no grid points on interval from    -117.3425     32.5000 to    -117.3400     32.5000
 Warning: no grid points on interval from    -117.3400     32.5000 to    -117.3375     32.5000
 Warning: no grid points on interval from    -117.3375     32.5000 to    -117.3350     32.5000
 Warning: no grid points on interval from    -117.3350     32.5000 to    -117.3325     32.5000
 Warning: no grid points on interval from    -117.3325     32.5000 to    -117.3300     32.5000
 Warning: no grid points on interval from    -117.3300     32.5000 to    -117.3275     32.5000
 Warning: no grid points on interval from    -117.3225     32.5000 to    -117.3200     32.5000
 Warning: no grid points on interval from    -117.3200     32.5000 to    -117.3175     32.5000
 Warning: no grid points on interval from    -117.3175     32.5000 to    -117.3150     32.5000
 Warning: no grid points on interval from    -117.3150     32.5000 to    -117.3125     32.5000
 Warning: no grid points on interval from    -117.3125     32.5000 to    -117.3100     32.5000
 Warning: no grid points on interval from    -117.3100     32.5000 to    -117.3075     32.5000
 Warning: no grid points on interval from    -117.3075     32.5000 to    -117.3050     32.5000
 Warning: no grid points on interval from    -117.3050     32.5000 to    -117.3025     32.5000
 Warning: no grid points on interval from    -117.2975     32.5000 to    -117.2950     32.5000
 Warning: no grid points on interval from    -117.2950     32.5000 to    -117.2925     32.5000
 Warning: no grid points on interval from    -117.2925     32.5000 to    -117.2900     32.5000
 Warning: no grid points on interval from    -117.2900     32.5000 to    -117.2875     32.5000
 Warning: no grid points on interval from    -117.2875     32.5000 to    -117.2850     32.5000
 Warning: no grid points on interval from    -117.2850     32.5000 to    -117.2825     32.5000
 Warning: no grid points on interval from    -117.2825     32.5000 to    -117.2800     32.5000
 Warning: no grid points on interval from    -117.2800     32.5000 to    -117.2775     32.5000
 Warning: no grid points on interval from    -117.2725     32.5000 to    -117.2700     32.5000
 Warning: no grid points on interval from    -117.2700     32.5000 to    -117.2675     32.5000
 Warning: no grid points on interval from    -117.2675     32.5000 to    -117.2650     32.5000
 Warning: no grid points on interval from    -117.2650     32.5000 to    -117.2625     32.5000
 Warning: no grid points on interval from    -117.2625     32.5000 to    -117.2600     32.5000
 Warning: no grid points on interval from    -117.2600     32.5000 to    -117.2575     32.5000
 Warning: no grid points on interval from    -117.2575     32.5000 to    -117.2550     32.5000
 Warning: no grid points on interval from    -117.2550     32.5000 to    -117.2525     32.5000
 Warning: no grid points on interval from    -117.2475     32.5000 to    -117.2450     32.5000
 Warning: no grid points on interval from    -117.2450     32.5000 to    -117.2425     32.5000
 Warning: no grid points on interval from    -117.2425     32.5000 to    -117.2400     32.5000
 Warning: no grid points on interval from    -117.2400     32.5000 to    -117.2375     32.5000
 Warning: no grid points on interval from    -117.2375     32.5000 to    -117.2350     32.5000
 Warning: no grid points on interval from    -117.2350     32.5000 to    -117.2325     32.5000
 Warning: no grid points on interval from    -117.2325     32.5000 to    -117.2300     32.5000
 Warning: no grid points on interval from    -117.2300     32.5000 to    -117.2275     32.5000
 Warning: no grid points on interval from    -117.2225     32.5000 to    -117.2200     32.5000
 Warning: no grid points on interval from    -117.2200     32.5000 to    -117.2175     32.5000
 Warning: no grid points on interval from    -117.2175     32.5000 to    -117.2150     32.5000
 Warning: no grid points on interval from    -117.2150     32.5000 to    -117.2125     32.5000
 Warning: no grid points on interval from    -117.2125     32.5000 to    -117.2100     32.5000
 Warning: no grid points on interval from    -117.2100     32.5000 to    -117.2075     32.5000
 Warning: no grid points on interval from    -117.2075     32.5000 to    -117.2050     32.5000
 Warning: no grid points on interval from    -117.2050     32.5000 to    -117.2025     32.5000
 Warning: no grid points on interval from    -117.1975     32.5000 to    -117.1950     32.5000
 Warning: no grid points on interval from    -117.1950     32.5000 to    -117.1925     32.5000
 Warning: no grid points on interval from    -117.1925     32.5000 to    -117.1900     32.5000
 Warning: no grid points on interval from    -117.1900     32.5000 to    -117.1875     32.5000
 Warning: no grid points on interval from    -117.1875     32.5000 to    -117.1850     32.5000
 Warning: no grid points on interval from    -117.1850     32.5000 to    -117.1825     32.5000
 Warning: no grid points on interval from    -117.1825     32.5000 to    -117.1800     32.5000
 Warning: no grid points on interval from    -117.1800     32.5000 to    -117.1775     32.5000
 Warning: no grid points on interval from    -117.1725     32.5000 to    -117.1700     32.5000
 Warning: no grid points on interval from    -117.1700     32.5000 to    -117.1675     32.5000
 Warning: no grid points on interval from    -117.1675     32.5000 to    -117.1650     32.5000
 Warning: no grid points on interval from    -117.1650     32.5000 to    -117.1625     32.5000
 Warning: no grid points on interval from    -117.1625     32.5000 to    -117.1600     32.5000
 Warning: no grid points on interval from    -117.1600     32.5000 to    -117.1575     32.5000
 Warning: no grid points on interval from    -117.1575     32.5000 to    -117.1550     32.5000
 Warning: no grid points on interval from    -117.1550     32.5000 to    -117.1525     32.5000
 Warning: no grid points on interval from    -117.1475     32.5000 to    -117.1450     32.5000
 Warning: no grid points on interval from    -117.1450     32.5000 to    -117.1425     32.5000
 Warning: no grid points on interval from    -117.1425     32.5000 to    -117.1400     32.5000
 Warning: no grid points on interval from    -117.1400     32.5000 to    -117.1375     32.5000
 Warning: no grid points on interval from    -117.1375     32.5000 to    -117.1350     32.5000
 Warning: no grid points on interval from    -117.1350     32.5000 to    -117.1325     32.5000
 Warning: no grid points on interval from    -117.1325     32.5000 to    -117.1300     32.5000
 Warning: no grid points on interval from    -117.1300     32.5000 to    -117.1275     32.5000
 Warning: no grid points on interval from    -117.1275     32.5000 to    -117.1250     32.5000
 Warning: no grid points on interval from    -117.1250     32.5000 to    -117.1225     32.5000
 Warning: no grid points on interval from    -117.1225     32.5000 to    -117.1200     32.5000
 Warning: no grid points on interval from    -117.1200     32.5000 to    -117.1175     32.5000
 Warning: no grid points on interval from    -117.1175     32.5000 to    -117.1150     32.5000
 Warning: no grid points on interval from    -117.1150     32.5000 to    -117.1125     32.5000
 Warning: no grid points on interval from    -117.1125     32.5000 to    -117.1100     32.5000
 Warning: no grid points on interval from    -117.1100     32.5000 to    -117.1075     32.5000
 Warning: no grid points on interval from    -117.1075     32.5000 to    -117.1050     32.5000
 Warning: no grid points on interval from    -117.1050     32.5000 to    -117.1025     32.5000
 Warning: no grid points on interval from    -117.1025     32.5000 to    -117.1000     32.5000
 Warning: no grid points on interval from    -117.1000     32.5000 to    -117.0975     32.5000
 Warning: no grid points on interval from    -117.0975     32.5000 to    -117.0950     32.5000
 Warning: no grid points on interval from    -117.0950     32.5000 to    -117.0925     32.5000
 Warning: no grid points on interval from    -117.0925     32.5000 to    -117.0900     32.5000
 Warning: no grid points on interval from    -117.0900     32.5000 to    -117.0875     32.5000
 Warning: no grid points on interval from    -117.0875     32.5000 to    -117.0850     32.5000
 Warning: no grid points on interval from    -117.0850     32.5000 to    -117.0825     32.5000
 Warning: no grid points on interval from    -117.0825     32.5000 to    -117.0800     32.5000
 Warning: no grid points on interval from    -117.0800     32.5000 to    -117.0775     32.5000
 Warning: no grid points on interval from    -117.0775     32.5000 to    -117.0750     32.5000
 Warning: no grid points on interval from    -117.0750     32.5000 to    -117.0725     32.5000
 Warning: no grid points on interval from    -117.0725     32.5000 to    -117.0700     32.5000
 Warning: no grid points on interval from    -117.0700     32.5000 to    -117.0675     32.5000
 Warning: no grid points on interval from    -117.0675     32.5000 to    -117.0650     32.5000
 Warning: no grid points on interval from    -117.0650     32.5000 to    -117.0625     32.5000
 Warning: no grid points on interval from    -117.0625     32.5000 to    -117.0600     32.5000
 Warning: no grid points on interval from    -117.0600     32.5000 to    -117.0575     32.5000
 Warning: no grid points on interval from    -117.0575     32.5000 to    -117.0550     32.5000
 Warning: no grid points on interval from    -117.0550     32.5000 to    -117.0525     32.5000
 Warning: no grid points on interval from    -117.0525     32.5000 to    -117.0500     32.5000
 Warning: no grid points on interval from    -117.0500     32.5000 to    -117.0475     32.5000
 Warning: no grid points on interval from    -117.0475     32.5000 to    -117.0450     32.5000
 Warning: no grid points on interval from    -117.0450     32.5000 to    -117.0425     32.5000
 Warning: no grid points on interval from    -117.0425     32.5000 to    -117.0400     32.5000
 Warning: no grid points on interval from    -117.0400     32.5000 to    -117.0375     32.5000
 Warning: no grid points on interval from    -117.0375     32.5000 to    -117.0350     32.5000
 Warning: no grid points on interval from    -117.0350     32.5000 to    -117.0325     32.5000
 Warning: no grid points on interval from    -117.0325     32.5000 to    -117.0300     32.5000
 Warning: no grid points on interval from    -117.0300     32.5000 to    -117.0275     32.5000
 Warning: no grid points on interval from    -117.0275     32.5000 to    -117.0250     32.5000
 Warning: no grid points on interval from    -117.0250     32.5000 to    -117.0225     32.5000
 Warning: no grid points on interval from    -117.0225     32.5000 to    -117.0200     32.5000
 Warning: no grid points on interval from    -117.0200     32.5000 to    -117.0175     32.5000
 Warning: no grid points on interval from    -117.0175     32.5000 to    -117.0150     32.5000
 Warning: no grid points on interval from    -117.0150     32.5000 to    -117.0125     32.5000
 Warning: no grid points on interval from    -117.0125     32.5000 to    -117.0100     32.5000
 Warning: no grid points on interval from    -117.0100     32.5000 to    -117.0075     32.5000
 Warning: no grid points on interval from    -117.0075     32.5000 to    -117.0050     32.5000
 Warning: no grid points on interval from    -117.0050     32.5000 to    -117.0025     32.5000
 Warning: no grid points on interval from    -117.0025     32.5000 to    -117.0000     32.5000
 Warning: no grid points on interval from    -117.0000     32.5000 to    -117.0000     32.5025
 Warning: no grid points on interval from    -117.0000     32.5025 to    -117.0000     32.5050
 Warning: no grid points on interval from    -117.0000     32.5050 to    -117.0000     32.5075
 Warning: no grid points on interval from    -117.0000     32.5075 to    -117.0000     32.5100
 Warning: no grid points on interval from    -117.0000     32.5100 to    -117.0000     32.5125
 Warning: no grid points on interval from    -117.0000     32.5125 to    -117.0000     32.5150
 Warning: no grid points on interval from    -117.0000     32.5150 to    -117.0000     32.5175
 Warning: no grid points on interval from    -117.0000     32.5175 to    -117.0000     32.5200
 Warning: no grid points on interval from    -117.0000     32.5200 to    -117.0000     32.5225
 Warning: no grid points on interval from    -117.0000     32.5225 to    -117.0000     32.5250
 Warning: no grid points on interval from    -117.0000     32.5250 to    -117.0000     32.5275
 Warning: no grid points on interval from    -117.0000     32.5275 to    -117.0000     32.5300
 Warning: no grid points on interval from    -117.0000     32.5300 to    -117.0000     32.5325
 Warning: no grid points on interval from    -117.0000     32.5325 to    -117.0000     32.5350
 Warning: no grid points on interval from    -117.0000     32.5350 to    -117.0000     32.5375
 Warning: no grid points on interval from    -117.0000     32.5375 to    -117.0000     32.5400
 Warning: no grid points on interval from    -117.0000     32.5400 to    -117.0000     32.5425
 Warning: no grid points on interval from    -117.0000     32.5425 to    -117.0000     32.5450
 Warning: no grid points on interval from    -117.0000     32.5450 to    -117.0000     32.5475
 Warning: no grid points on interval from    -117.0000     32.5475 to    -117.0000     32.5500
 Warning: no grid points on interval from    -117.0000     32.5500 to    -117.0000     32.5525
 Warning: no grid points on interval from    -117.0000     32.5525 to    -117.0000     32.5550
 Warning: no grid points on interval from    -117.0000     32.5550 to    -117.0000     32.5575
 Warning: no grid points on interval from    -117.0000     32.5575 to    -117.0000     32.5600
 Warning: no grid points on interval from    -117.0000     32.5600 to    -117.0000     32.5625
 Warning: no grid points on interval from    -117.0000     32.5625 to    -117.0000     32.5650
 Warning: no grid points on interval from    -117.0000     32.5650 to    -117.0000     32.5675
 Warning: no grid points on interval from    -117.0000     32.5675 to    -117.0000     32.5700
 Warning: no grid points on interval from    -117.0000     32.5700 to    -117.0000     32.5725
 Warning: no grid points on interval from    -117.0000     32.5725 to    -117.0000     32.5750
 Warning: no grid points on interval from    -117.0000     32.5750 to    -117.0000     32.5775
 Warning: no grid points on interval from    -117.0000     32.5775 to    -117.0000     32.5800
 Warning: no grid points on interval from    -117.0000     32.5800 to    -117.0000     32.5825
 Warning: no grid points on interval from    -117.0000     32.5825 to    -117.0000     32.5850
 Warning: no grid points on interval from    -117.0000     32.5850 to    -117.0000     32.5875
 Warning: no grid points on interval from    -117.0000     32.5875 to    -117.0000     32.5900
 Warning: no grid points on interval from    -117.0000     32.5900 to    -117.0000     32.5925
 Warning: no grid points on interval from    -117.0000     32.5925 to    -117.0000     32.5950
 Warning: no grid points on interval from    -117.0000     32.5950 to    -117.0000     32.5975
 Warning: no grid points on interval from    -117.0000     32.5975 to    -117.0000     32.6000
 Warning: no grid points on interval from    -117.0000     32.6000 to    -117.0000     32.6025
 Warning: no grid points on interval from    -117.0000     32.6025 to    -117.0000     32.6050
 Warning: no grid points on interval from    -117.0000     32.6050 to    -117.0000     32.6075
 Warning: no grid points on interval from    -117.0000     32.6075 to    -117.0000     32.6100
 Warning: no grid points on interval from    -117.0000     32.6100 to    -117.0000     32.6125
 Warning: no grid points on interval from    -117.0000     32.6125 to    -117.0000     32.6150
 Warning: no grid points on interval from    -117.0000     32.6150 to    -117.0000     32.6175
 Warning: no grid points on interval from    -117.0000     32.6175 to    -117.0000     32.6200
 Warning: no grid points on interval from    -117.0000     32.6200 to    -117.0000     32.6225
 Warning: no grid points on interval from    -117.0000     32.6225 to    -117.0000     32.6250
 Warning: no grid points on interval from    -117.0000     32.6250 to    -117.0000     32.6275
 Warning: no grid points on interval from    -117.0000     32.6275 to    -117.0000     32.6300
 Warning: no grid points on interval from    -117.0000     32.6300 to    -117.0000     32.6325
 Warning: no grid points on interval from    -117.0000     32.6325 to    -117.0000     32.6350
 Warning: no grid points on interval from    -117.0000     32.6350 to    -117.0000     32.6375
 Warning: no grid points on interval from    -117.0000     32.6375 to    -117.0000     32.6400
 Warning: no grid points on interval from    -117.0000     32.6400 to    -117.0000     32.6425
 Warning: no grid points on interval from    -117.0000     32.6425 to    -117.0000     32.6450
 Warning: no grid points on interval from    -117.0000     32.6450 to    -117.0000     32.6475
 Warning: no grid points on interval from    -117.0000     32.6475 to    -117.0000     32.6500
 Warning: no grid points on interval from    -117.0000     32.6500 to    -117.0000     32.6525
 Warning: no grid points on interval from    -117.0000     32.6525 to    -117.0000     32.6550
 Warning: no grid points on interval from    -117.0000     32.6550 to    -117.0000     32.6575
 Warning: no grid points on interval from    -117.0000     32.6575 to    -117.0000     32.6600
 Warning: no grid points on interval from    -117.0000     32.6600 to    -117.0000     32.6625
 Warning: no grid points on interval from    -117.0000     32.6625 to    -117.0000     32.6650
 Warning: no grid points on interval from    -117.0000     32.6650 to    -117.0000     32.6675
 Warning: no grid points on interval from    -117.0000     32.6675 to    -117.0000     32.6700
 Warning: no grid points on interval from    -117.0000     32.6700 to    -117.0000     32.6725
 Warning: no grid points on interval from    -117.0000     32.6725 to    -117.0000     32.6750
 Warning: no grid points on interval from    -117.0000     32.6750 to    -117.0000     32.6775
 Warning: no grid points on interval from    -117.0000     32.6775 to    -117.0000     32.6800
 Warning: no grid points on interval from    -117.0000     32.6800 to    -117.0000     32.6825
 Warning: no grid points on interval from    -117.0000     32.6825 to    -117.0000     32.6850
 Warning: no grid points on interval from    -117.0000     32.6850 to    -117.0000     32.6875
 Warning: no grid points on interval from    -117.0000     32.6875 to    -117.0000     32.6900
 Warning: no grid points on interval from    -117.0000     32.6900 to    -117.0000     32.6925
 Warning: no grid points on interval from    -117.0000     32.6925 to    -117.0000     32.6950
 Warning: no grid points on interval from    -117.0000     32.6950 to    -117.0000     32.6975
 Warning: no grid points on interval from    -117.0000     32.6975 to    -117.0000     32.7000
 Warning: no grid points on interval from    -117.0000     32.7000 to    -117.0000     32.7025
 Warning: no grid points on interval from    -117.0000     32.7025 to    -117.0000     32.7050
 Warning: no grid points on interval from    -117.0000     32.7050 to    -117.0000     32.7075
 Warning: no grid points on interval from    -117.0000     32.7075 to    -117.0000     32.7100
 Warning: no grid points on interval from    -117.0000     32.7100 to    -117.0000     32.7125
 Warning: no grid points on interval from    -117.0000     32.7125 to    -117.0000     32.7150
 Warning: no grid points on interval from    -117.0000     32.7150 to    -117.0000     32.7175
 Warning: no grid points on interval from    -117.0000     32.7175 to    -117.0000     32.7200
 Warning: no grid points on interval from    -117.0000     32.7200 to    -117.0000     32.7225
 Warning: no grid points on interval from    -117.0000     32.7225 to    -117.0000     32.7250
 Warning: no grid points on interval from    -117.0000     32.7250 to    -117.0000     32.7275
 Warning: no grid points on interval from    -117.0000     32.7275 to    -117.0000     32.7300
 Warning: no grid points on interval from    -117.0000     32.7300 to    -117.0000     32.7325
 Warning: no grid points on interval from    -117.0000     32.7325 to    -117.0000     32.7350
 Warning: no grid points on interval from    -117.0000     32.7350 to    -117.0000     32.7375
 Warning: no grid points on interval from    -117.0000     32.7375 to    -117.0000     32.7400
 Warning: no grid points on interval from    -117.0000     32.7400 to    -117.0000     32.7425
 Warning: no grid points on interval from    -117.0000     32.7425 to    -117.0000     32.7450
 Warning: no grid points on interval from    -117.0000     32.7450 to    -117.0000     32.7475
 Warning: no grid points on interval from    -117.0000     32.7475 to    -117.0000     32.7500
 Warning: no grid points on interval from    -117.0000     32.7500 to    -117.0000     32.7525
 Warning: no grid points on interval from    -117.0000     32.7525 to    -117.0000     32.7550
 Warning: no grid points on interval from    -117.0000     32.7550 to    -117.0000     32.7575
 Warning: no grid points on interval from    -117.0000     32.7575 to    -117.0000     32.7600
 Warning: no grid points on interval from    -117.0000     32.7600 to    -117.0000     32.7625
 Warning: no grid points on interval from    -117.0000     32.7625 to    -117.0000     32.7650
 Warning: no grid points on interval from    -117.0000     32.7650 to    -117.0000     32.7675
 Warning: no grid points on interval from    -117.0000     32.7675 to    -117.0000     32.7700
 Warning: no grid points on interval from    -117.0000     32.7700 to    -117.0000     32.7725
 Warning: no grid points on interval from    -117.0000     32.7725 to    -117.0000     32.7750
 Warning: no grid points on interval from    -117.0000     32.7750 to    -117.0000     32.7775
 Warning: no grid points on interval from    -117.0000     32.7775 to    -117.0000     32.7800
 Warning: no grid points on interval from    -117.0000     32.7800 to    -117.0000     32.7825
 Warning: no grid points on interval from    -117.0000     32.7825 to    -117.0000     32.7850
 Warning: no grid points on interval from    -117.0000     32.7850 to    -117.0000     32.7875
 Warning: no grid points on interval from    -117.0000     32.7875 to    -117.0000     32.7900
 Warning: no grid points on interval from    -117.0000     32.7900 to    -117.0000     32.7925
 Warning: no grid points on interval from    -117.0000     32.7925 to    -117.0000     32.7950
 Warning: no grid points on interval from    -117.0000     32.7950 to    -117.0000     32.7975
 Warning: no grid points on interval from    -117.0000     32.7975 to    -117.0000     32.8000
 Warning: no grid points on interval from    -117.0000     32.8000 to    -117.0000     32.8025
 Warning: no grid points on interval from    -117.0000     32.8025 to    -117.0000     32.8050
 Warning: no grid points on interval from    -117.0000     32.8050 to    -117.0000     32.8075
 Warning: no grid points on interval from    -117.0000     32.8075 to    -117.0000     32.8100
 Warning: no grid points on interval from    -117.0000     32.8100 to    -117.0000     32.8125
 Warning: no grid points on interval from    -117.0000     32.8125 to    -117.0000     32.8150
 Warning: no grid points on interval from    -117.0000     32.8150 to    -117.0000     32.8175
 Warning: no grid points on interval from    -117.0000     32.8175 to    -117.0000     32.8200
 Warning: no grid points on interval from    -117.0000     32.8200 to    -117.0000     32.8225
 Warning: no grid points on interval from    -117.0000     32.8225 to    -117.0000     32.8250
 Warning: no grid points on interval from    -117.0000     32.8250 to    -117.0000     32.8275
 Warning: no grid points on interval from    -117.0000     32.8275 to    -117.0000     32.8300
 Warning: no grid points on interval from    -117.0000     32.8300 to    -117.0000     32.8325
 Warning: no grid points on interval from    -117.0000     32.8325 to    -117.0000     32.8350
 Warning: no grid points on interval from    -117.0000     32.8350 to    -117.0000     32.8375
 Warning: no grid points on interval from    -117.0000     32.8375 to    -117.0000     32.8400
 Warning: no grid points on interval from    -117.0000     32.8400 to    -117.0000     32.8425
 Warning: no grid points on interval from    -117.0000     32.8425 to    -117.0000     32.8450
 Warning: no grid points on interval from    -117.0000     32.8450 to    -117.0000     32.8475
 Warning: no grid points on interval from    -117.0000     32.8475 to    -117.0000     32.8500
 Warning: no grid points on interval from    -117.0000     32.8500 to    -117.0000     32.8525
 Warning: no grid points on interval from    -117.0000     32.8525 to    -117.0000     32.8550
 Warning: no grid points on interval from    -117.0000     32.8550 to    -117.0000     32.8575
 Warning: no grid points on interval from    -117.0000     32.8575 to    -117.0000     32.8600
 Warning: no grid points on interval from    -117.0000     32.8600 to    -117.0000     32.8625
 Warning: no grid points on interval from    -117.0000     32.8625 to    -117.0000     32.8650
 Warning: no grid points on interval from    -117.0000     32.8650 to    -117.0000     32.8675
 Warning: no grid points on interval from    -117.0000     32.8675 to    -117.0000     32.8700
 Warning: no grid points on interval from    -117.0000     32.8700 to    -117.0000     32.8725
 Warning: no grid points on interval from    -117.0000     32.8725 to    -117.0000     32.8750
 Warning: no grid points on interval from    -117.0000     32.8750 to    -117.0000     32.8775
 Warning: no grid points on interval from    -117.0000     32.8775 to    -117.0000     32.8800
 Warning: no grid points on interval from    -117.0000     32.8800 to    -117.0000     32.8825
 Warning: no grid points on interval from    -117.0000     32.8825 to    -117.0000     32.8850
 Warning: no grid points on interval from    -117.0000     32.8850 to    -117.0000     32.8875
 Warning: no grid points on interval from    -117.0000     32.8875 to    -117.0000     32.8900
 Warning: no grid points on interval from    -117.0000     32.8900 to    -117.0000     32.8925
 Warning: no grid points on interval from    -117.0000     32.8925 to    -117.0000     32.8950
 Warning: no grid points on interval from    -117.0000     32.8950 to    -117.0000     32.8975
 Warning: no grid points on interval from    -117.0000     32.8975 to    -117.0000     32.9000
 Warning: no grid points on interval from    -117.0000     32.9000 to    -117.0000     32.9025
 Warning: no grid points on interval from    -117.0000     32.9025 to    -117.0000     32.9050
 Warning: no grid points on interval from    -117.0000     32.9050 to    -117.0000     32.9075
 Warning: no grid points on interval from    -117.0000     32.9075 to    -117.0000     32.9100
 Warning: no grid points on interval from    -117.0000     32.9100 to    -117.0000     32.9125
 Warning: no grid points on interval from    -117.0000     32.9125 to    -117.0000     32.9150
 Warning: no grid points on interval from    -117.0000     32.9150 to    -117.0000     32.9175
 Warning: no grid points on interval from    -117.0000     32.9175 to    -117.0000     32.9200
 Warning: no grid points on interval from    -117.0000     32.9200 to    -117.0000     32.9225
 Warning: no grid points on interval from    -117.0000     32.9225 to    -117.0000     32.9250
 Warning: no grid points on interval from    -117.0000     32.9250 to    -117.0000     32.9275
 Warning: no grid points on interval from    -117.0000     32.9275 to    -117.0000     32.9300
 Warning: no grid points on interval from    -117.0000     32.9300 to    -117.0000     32.9325
 Warning: no grid points on interval from    -117.0000     32.9325 to    -117.0000     32.9350
 Warning: no grid points on interval from    -117.0000     32.9350 to    -117.0000     32.9375
 Warning: no grid points on interval from    -117.0000     32.9375 to    -117.0000     32.9400
 Warning: no grid points on interval from    -117.0000     32.9400 to    -117.0000     32.9425
 Warning: no grid points on interval from    -117.0000     32.9425 to    -117.0000     32.9450
 Warning: no grid points on interval from    -117.0000     32.9450 to    -117.0000     32.9475
 Warning: no grid points on interval from    -117.0000     32.9475 to    -117.0000     32.9500
 Warning: no grid points on interval from    -117.0000     32.9500 to    -117.0000     32.9525
 Warning: no grid points on interval from    -117.0000     32.9525 to    -117.0000     32.9550
 Warning: no grid points on interval from    -117.0000     32.9550 to    -117.0000     32.9575
 Warning: no grid points on interval from    -117.0000     32.9575 to    -117.0000     32.9600
 Warning: no grid points on interval from    -117.0000     32.9600 to    -117.0000     32.9625
 Warning: no grid points on interval from    -117.0000     32.9625 to    -117.0000     32.9650
 Warning: no grid points on interval from    -117.0000     32.9650 to    -117.0000     32.9675
 Warning: no grid points on interval from    -117.0000     32.9675 to    -117.0000     32.9700
 Warning: no grid points on interval from    -117.0000     32.9700 to    -117.0000     32.9725
 Warning: no grid points on interval from    -117.0000     32.9725 to    -117.0000     32.9750
 Warning: no grid points on interval from    -117.0000     32.9750 to    -117.0000     32.9775
 Warning: no grid points on interval from    -117.0000     32.9775 to    -117.0000     32.9800
 Warning: no grid points on interval from    -117.0000     32.9800 to    -117.0000     32.9825
 Warning: no grid points on interval from    -117.0000     32.9825 to    -117.0000     32.9850
 Warning: no grid points on interval from    -117.0000     32.9850 to    -117.0000     32.9875
 Warning: no grid points on interval from    -117.0000     32.9875 to    -117.0000     32.9900
 Warning: no grid points on interval from    -117.0000     32.9900 to    -117.0000     32.9925
 Warning: no grid points on interval from    -117.0000     32.9925 to    -117.0000     32.9950
 Warning: no grid points on interval from    -117.0000     32.9950 to    -117.0000     32.9975
 Warning: no grid points on interval from    -117.0000     32.9975 to    -117.0000     33.0000
 Warning: no grid points on interval from    -117.0000     33.0000 to    -117.0000     33.0025
 Warning: no grid points on interval from    -117.0000     33.0025 to    -117.0000     33.0050
 Warning: no grid points on interval from    -117.0000     33.0050 to    -117.0000     33.0075
 Warning: no grid points on interval from    -117.0000     33.0075 to    -117.0000     33.0100
 Warning: no grid points on interval from    -117.0000     33.0100 to    -117.0000     33.0125
 Warning: no grid points on interval from    -117.0000     33.0125 to    -117.0000     33.0150
 Warning: no grid points on interval from    -117.0000     33.0150 to    -117.0000     33.0175
 Warning: no grid points on interval from    -117.0000     33.0175 to    -117.0000     33.0200
 Warning: no grid points on interval from    -117.0000     33.0200 to    -117.0000     33.0225
 Warning: no grid points on interval from    -117.0000     33.0225 to    -117.0000     33.0250
 Warning: no grid points on interval from    -117.0000     33.0250 to    -117.0000     33.0275
 Warning: no grid points on interval from    -117.0000     33.0275 to    -117.0000     33.0300
 Warning: no grid points on interval from    -117.0000     33.0300 to    -117.0000     33.0325
 Warning: no grid points on interval from    -117.0000     33.0325 to    -117.0000     33.0350
 Warning: no grid points on interval from    -117.0000     33.0350 to    -117.0000     33.0375
 Warning: no grid points on interval from    -117.0000     33.0375 to    -117.0000     33.0400
 Warning: no grid points on interval from    -117.0000     33.0400 to    -117.0000     33.0425
 Warning: no grid points on interval from    -117.0000     33.0425 to    -117.0000     33.0450
 Warning: no grid points on interval from    -117.0000     33.0450 to    -117.0000     33.0475
 Warning: no grid points on interval from    -117.0000     33.0475 to    -117.0000     33.0500
 Warning: no grid points on interval from    -117.0000     33.0500 to    -117.0000     33.0525
 Warning: no grid points on interval from    -117.0000     33.0525 to    -117.0000     33.0550
 Warning: no grid points on interval from    -117.0000     33.0550 to    -117.0000     33.0575
 Warning: no grid points on interval from    -117.0000     33.0575 to    -117.0000     33.0600
 Warning: no grid points on interval from    -117.0000     33.0600 to    -117.0000     33.0625
 Warning: no grid points on interval from    -117.0000     33.0625 to    -117.0000     33.0650
 Warning: no grid points on interval from    -117.0000     33.0650 to    -117.0000     33.0675
 Warning: no grid points on interval from    -117.0000     33.0675 to    -117.0000     33.0700
 Warning: no grid points on interval from    -117.0000     33.0700 to    -117.0000     33.0725
 Warning: no grid points on interval from    -117.0000     33.0725 to    -117.0000     33.0750
 Warning: no grid points on interval from    -117.0000     33.0750 to    -117.0000     33.0775
 Warning: no grid points on interval from    -117.0000     33.0775 to    -117.0000     33.0800
 Warning: no grid points on interval from    -117.0000     33.0800 to    -117.0000     33.0825
 Warning: no grid points on interval from    -117.0000     33.0825 to    -117.0000     33.0850
 Warning: no grid points on interval from    -117.0000     33.0850 to    -117.0000     33.0875
 Warning: no grid points on interval from    -117.0000     33.0875 to    -117.0000     33.0900
 Warning: no grid points on interval from    -117.0000     33.0900 to    -117.0000     33.0925
 Warning: no grid points on interval from    -117.0000     33.0925 to    -117.0000     33.0950
 Warning: no grid points on interval from    -117.0000     33.0950 to    -117.0000     33.0975
 Warning: no grid points on interval from    -117.0000     33.0975 to    -117.0000     33.1000
 Warning: no grid points on interval from    -117.0000     33.1000 to    -117.0000     33.1025
 Warning: no grid points on interval from    -117.0000     33.1025 to    -117.0000     33.1050
 Warning: no grid points on interval from    -117.0000     33.1050 to    -117.0000     33.1075
 Warning: no grid points on interval from    -117.0000     33.1075 to    -117.0000     33.1100
 Warning: no grid points on interval from    -117.0000     33.1100 to    -117.0000     33.1125
 Warning: no grid points on interval from    -117.0000     33.1125 to    -117.0000     33.1150
 Warning: no grid points on interval from    -117.0000     33.1150 to    -117.0000     33.1175
 Warning: no grid points on interval from    -117.0000     33.1175 to    -117.0000     33.1200
 Warning: no grid points on interval from    -117.0000     33.1200 to    -117.0000     33.1225
 Warning: no grid points on interval from    -117.0000     33.1225 to    -117.0000     33.1250
 Warning: no grid points on interval from    -117.0000     33.1250 to    -117.0000     33.1275
 Warning: no grid points on interval from    -117.0000     33.1275 to    -117.0000     33.1300
 Warning: no grid points on interval from    -117.0000     33.1300 to    -117.0000     33.1325
 Warning: no grid points on interval from    -117.0000     33.1325 to    -117.0000     33.1350
 Warning: no grid points on interval from    -117.0000     33.1350 to    -117.0000     33.1375
 Warning: no grid points on interval from    -117.0000     33.1375 to    -117.0000     33.1400
 Warning: no grid points on interval from    -117.0000     33.1400 to    -117.0000     33.1425
 Warning: no grid points on interval from    -117.0000     33.1425 to    -117.0000     33.1450
 Warning: no grid points on interval from    -117.0000     33.1450 to    -117.0000     33.1475
 Warning: no grid points on interval from    -117.0000     33.1475 to    -117.0000     33.1500
 Warning: no grid points on interval from    -117.0000     33.1500 to    -117.0000     33.1525
 Warning: no grid points on interval from    -117.0000     33.1525 to    -117.0000     33.1550
 Warning: no grid points on interval from    -117.0000     33.1550 to    -117.0000     33.1575
 Warning: no grid points on interval from    -117.0000     33.1575 to    -117.0000     33.1600
 Warning: no grid points on interval from    -117.0000     33.1600 to    -117.0000     33.1625
 Warning: no grid points on interval from    -117.0000     33.1625 to    -117.0000     33.1650
 Warning: no grid points on interval from    -117.0000     33.1650 to    -117.0000     33.1675
 Warning: no grid points on interval from    -117.0000     33.1675 to    -117.0000     33.1700
 Warning: no grid points on interval from    -117.0000     33.1700 to    -117.0000     33.1725
 Warning: no grid points on interval from    -117.0000     33.1725 to    -117.0000     33.1750
 Warning: no grid points on interval from    -117.0000     33.1750 to    -117.0000     33.1775
 Warning: no grid points on interval from    -117.0000     33.1775 to    -117.0000     33.1800
 Warning: no grid points on interval from    -117.0000     33.1800 to    -117.0000     33.1825
 Warning: no grid points on interval from    -117.0000     33.1825 to    -117.0000     33.1850
 Warning: no grid points on interval from    -117.0000     33.1850 to    -117.0000     33.1875
 Warning: no grid points on interval from    -117.0000     33.1875 to    -117.0000     33.1900
 Warning: no grid points on interval from    -117.0000     33.1900 to    -117.0000     33.1925
 Warning: no grid points on interval from    -117.0000     33.1925 to    -117.0000     33.1950
 Warning: no grid points on interval from    -117.0000     33.1950 to    -117.0000     33.1975
 Warning: no grid points on interval from    -117.0000     33.1975 to    -117.0000     33.2000
 Warning: no grid points on interval from    -117.0000     33.2000 to    -117.0000     33.2025
 Warning: no grid points on interval from    -117.0000     33.2025 to    -117.0000     33.2050
 Warning: no grid points on interval from    -117.0000     33.2050 to    -117.0000     33.2075
 Warning: no grid points on interval from    -117.0000     33.2075 to    -117.0000     33.2100
 Warning: no grid points on interval from    -117.0000     33.2100 to    -117.0000     33.2125
 Warning: no grid points on interval from    -117.0000     33.2125 to    -117.0000     33.2150
 Warning: no grid points on interval from    -117.0000     33.2150 to    -117.0000     33.2175
 Warning: no grid points on interval from    -117.0000     33.2175 to    -117.0000     33.2200
 Warning: no grid points on interval from    -117.0000     33.2200 to    -117.0000     33.2225
 Warning: no grid points on interval from    -117.0000     33.2225 to    -117.0000     33.2250
 Warning: no grid points on interval from    -117.0000     33.2250 to    -117.0000     33.2275
 Warning: no grid points on interval from    -117.0000     33.2275 to    -117.0000     33.2300
 Warning: no grid points on interval from    -117.0000     33.2300 to    -117.0000     33.2325
 Warning: no grid points on interval from    -117.0000     33.2325 to    -117.0000     33.2350
 Warning: no grid points on interval from    -117.0000     33.2350 to    -117.0000     33.2375
 Warning: no grid points on interval from    -117.0000     33.2375 to    -117.0000     33.2400
 Warning: no grid points on interval from    -117.0000     33.2400 to    -117.0000     33.2425
 Warning: no grid points on interval from    -117.0000     33.2425 to    -117.0000     33.2450
 Warning: no grid points on interval from    -117.0000     33.2450 to    -117.0000     33.2475
 Warning: no grid points on interval from    -117.0000     33.2475 to    -117.0000     33.2500
 Warning: no grid points on interval from    -117.0000     33.2500 to    -117.0000     33.2525
 Warning: no grid points on interval from    -117.0000     33.2525 to    -117.0000     33.2550
 Warning: no grid points on interval from    -117.0000     33.2550 to    -117.0000     33.2575
 Warning: no grid points on interval from    -117.0000     33.2575 to    -117.0000     33.2600
 Warning: no grid points on interval from    -117.0000     33.2600 to    -117.0000     33.2625
 Warning: no grid points on interval from    -117.0000     33.2625 to    -117.0000     33.2650
 Warning: no grid points on interval from    -117.0000     33.2650 to    -117.0000     33.2675
 Warning: no grid points on interval from    -117.0000     33.2675 to    -117.0000     33.2700
 Warning: no grid points on interval from    -117.0000     33.2700 to    -117.0000     33.2725
 Warning: no grid points on interval from    -117.0000     33.2725 to    -117.0000     33.2750
 Warning: no grid points on interval from    -117.0000     33.2750 to    -117.0000     33.2775
 Warning: no grid points on interval from    -117.0000     33.2775 to    -117.0000     33.2800
 Warning: no grid points on interval from    -117.0000     33.2800 to    -117.0000     33.2825
 Warning: no grid points on interval from    -117.0000     33.2825 to    -117.0000     33.2850
 Warning: no grid points on interval from    -117.0000     33.2850 to    -117.0000     33.2875
 Warning: no grid points on interval from    -117.0000     33.2875 to    -117.0000     33.2900
 Warning: no grid points on interval from    -117.0000     33.2900 to    -117.0000     33.2925
 Warning: no grid points on interval from    -117.0000     33.2925 to    -117.0000     33.2950
 Warning: no grid points on interval from    -117.0000     33.2950 to    -117.0000     33.2975
 Warning: no grid points on interval from    -117.0000     33.2975 to    -117.0000     33.3000
 Warning: no grid points on interval from    -117.0000     33.3000 to    -117.0000     33.3025
 Warning: no grid points on interval from    -117.0000     33.3025 to    -117.0000     33.3050
 Warning: no grid points on interval from    -117.0000     33.3050 to    -117.0000     33.3075
 Warning: no grid points on interval from    -117.0000     33.3075 to    -117.0000     33.3100
 Warning: no grid points on interval from    -117.0000     33.3100 to    -117.0000     33.3125
 Warning: no grid points on interval from    -117.0000     33.3125 to    -117.0000     33.3150
 Warning: no grid points on interval from    -117.0000     33.3150 to    -117.0000     33.3175
 Warning: no grid points on interval from    -117.0000     33.3175 to    -117.0000     33.3200
 Warning: no grid points on interval from    -117.0000     33.3200 to    -117.0000     33.3225
 Warning: no grid points on interval from    -117.0000     33.3225 to    -117.0000     33.3250
 Warning: no grid points on interval from    -117.0000     33.3250 to    -117.0000     33.3275
 Warning: no grid points on interval from    -117.0000     33.3275 to    -117.0000     33.3300
 Warning: no grid points on interval from    -117.0000     33.3300 to    -117.0000     33.3325
 Warning: no grid points on interval from    -117.0000     33.3325 to    -117.0000     33.3350
 Warning: no grid points on interval from    -117.0000     33.3350 to    -117.0000     33.3375
 Warning: no grid points on interval from    -117.0000     33.3375 to    -117.0000     33.3400
 Warning: no grid points on interval from    -117.0000     33.3400 to    -117.0000     33.3425
 Warning: no grid points on interval from    -117.0000     33.3425 to    -117.0000     33.3450
 Warning: no grid points on interval from    -117.0000     33.3450 to    -117.0000     33.3475
 Warning: no grid points on interval from    -117.0000     33.3475 to    -117.0000     33.3500
 Warning: no grid points on interval from    -117.0000     33.3500 to    -117.0000     33.3525
 Warning: no grid points on interval from    -117.0000     33.3525 to    -117.0000     33.3550
 Warning: no grid points on interval from    -117.0000     33.3550 to    -117.0000     33.3575
 Warning: no grid points on interval from    -117.0000     33.3575 to    -117.0000     33.3600
 Warning: no grid points on interval from    -117.0000     33.3600 to    -117.0000     33.3625
 Warning: no grid points on interval from    -117.0000     33.3625 to    -117.0000     33.3650
 Warning: no grid points on interval from    -117.0000     33.3650 to    -117.0000     33.3675
 Warning: no grid points on interval from    -117.0000     33.3675 to    -117.0000     33.3700
 Warning: no grid points on interval from    -117.0000     33.3700 to    -117.0000     33.3725
 Warning: no grid points on interval from    -117.0000     33.3725 to    -117.0000     33.3750
 Warning: no grid points on interval from    -117.0000     33.3750 to    -117.0000     33.3775
 Warning: no grid points on interval from    -117.0000     33.3775 to    -117.0000     33.3800
 Warning: no grid points on interval from    -117.0000     33.3800 to    -117.0000     33.3825
 Warning: no grid points on interval from    -117.0000     33.3825 to    -117.0000     33.3850
 Warning: no grid points on interval from    -117.0000     33.3850 to    -117.0000     33.3875
 Warning: no grid points on interval from    -117.0000     33.3875 to    -117.0000     33.3900
 Warning: no grid points on interval from    -117.0000     33.3900 to    -117.0000     33.3925
 Warning: no grid points on interval from    -117.0000     33.3925 to    -117.0000     33.3950
 Warning: no grid points on interval from    -117.0000     33.3950 to    -117.0000     33.3975
 Warning: no grid points on interval from    -117.0000     33.3975 to    -117.0000     33.4000
 Warning: no grid points on interval from    -117.0000     33.4000 to    -117.0000     33.4025
 Warning: no grid points on interval from    -117.0000     33.4025 to    -117.0000     33.4050
 Warning: no grid points on interval from    -117.0000     33.4050 to    -117.0000     33.4075
 Warning: no grid points on interval from    -117.0000     33.4075 to    -117.0000     33.4100
 Warning: no grid points on interval from    -117.0000     33.4100 to    -117.0000     33.4125
 Warning: no grid points on interval from    -117.0000     33.4125 to    -117.0000     33.4150
 Warning: no grid points on interval from    -117.0000     33.4150 to    -117.0000     33.4175
 Warning: no grid points on interval from    -117.0000     33.4175 to    -117.0000     33.4200
 Warning: no grid points on interval from    -117.0000     33.4200 to    -117.0000     33.4225
 Warning: no grid points on interval from    -117.0000     33.4225 to    -117.0000     33.4250
 Warning: no grid points on interval from    -117.0000     33.4250 to    -117.0000     33.4275
 Warning: no grid points on interval from    -117.0000     33.4275 to    -117.0000     33.4300
 Warning: no grid points on interval from    -117.0000     33.4300 to    -117.0000     33.4325
 Warning: no grid points on interval from    -117.0000     33.4325 to    -117.0000     33.4350
 Warning: no grid points on interval from    -117.0000     33.4350 to    -117.0000     33.4375
 Warning: no grid points on interval from    -117.0000     33.4375 to    -117.0000     33.4400
 Warning: no grid points on interval from    -117.0000     33.4400 to    -117.0000     33.4425
 Warning: no grid points on interval from    -117.0000     33.4425 to    -117.0000     33.4450
 Warning: no grid points on interval from    -117.0000     33.4450 to    -117.0000     33.4475
 Warning: no grid points on interval from    -117.0000     33.4475 to    -117.0000     33.4500
 Warning: no grid points on interval from    -117.0000     33.4500 to    -117.0000     33.4525
 Warning: no grid points on interval from    -117.0000     33.4525 to    -117.0000     33.4550
 Warning: no grid points on interval from    -117.0000     33.4550 to    -117.0000     33.4575
 Warning: no grid points on interval from    -117.0000     33.4575 to    -117.0000     33.4600
 Warning: no grid points on interval from    -117.0000     33.4600 to    -117.0000     33.4625
 Warning: no grid points on interval from    -117.0000     33.4625 to    -117.0000     33.4650
 Warning: no grid points on interval from    -117.0000     33.4650 to    -117.0000     33.4675
 Warning: no grid points on interval from    -117.0000     33.4675 to    -117.0000     33.4700
 Warning: no grid points on interval from    -117.0000     33.4700 to    -117.0000     33.4725
 Warning: no grid points on interval from    -117.0000     33.4725 to    -117.0000     33.4750
 Warning: no grid points on interval from    -117.0000     33.4750 to    -117.0000     33.4775
 Warning: no grid points on interval from    -117.0000     33.4775 to    -117.0000     33.4800
 Warning: no grid points on interval from    -117.0000     33.4800 to    -117.0000     33.4825
 Warning: no grid points on interval from    -117.0000     33.4825 to    -117.0000     33.4850
 Warning: no grid points on interval from    -117.0000     33.4850 to    -117.0000     33.4875
 Warning: no grid points on interval from    -117.0000     33.4875 to    -117.0000     33.4900
 Warning: no grid points on interval from    -117.0000     33.4900 to    -117.0000     33.4925
 Warning: no grid points on interval from    -117.0000     33.4925 to    -117.0000     33.4950
 Warning: no grid points on interval from    -117.0000     33.4950 to    -117.0000     33.4975
 Warning: no grid points on interval from    -117.0000     33.4975 to    -117.0000     33.5000
 Warning: no grid points on interval from    -117.0000     33.5000 to    -117.0025     33.5000
 Warning: no grid points on interval from    -117.0025     33.5000 to    -117.0050     33.5000
 Warning: no grid points on interval from    -117.0050     33.5000 to    -117.0075     33.5000
 Warning: no grid points on interval from    -117.0075     33.5000 to    -117.0100     33.5000
 Warning: no grid points on interval from    -117.0100     33.5000 to    -117.0125     33.5000
 Warning: no grid points on interval from    -117.0125     33.5000 to    -117.0150     33.5000
 Warning: no grid points on interval from    -117.0150     33.5000 to    -117.0175     33.5000
 Warning: no grid points on interval from    -117.0175     33.5000 to    -117.0200     33.5000
 Warning: no grid points on interval from    -117.0200     33.5000 to    -117.0225     33.5000
 Warning: no grid points on interval from    -117.0225     33.5000 to    -117.0250     33.5000
 Warning: no grid points on interval from    -117.0250     33.5000 to    -117.0275     33.5000
 Warning: no grid points on interval from    -117.0275     33.5000 to    -117.0300     33.5000
 Warning: no grid points on interval from    -117.0300     33.5000 to    -117.0325     33.5000
 Warning: no grid points on interval from    -117.0325     33.5000 to    -117.0350     33.5000
 Warning: no grid points on interval from    -117.0350     33.5000 to    -117.0375     33.5000
 Warning: no grid points on interval from    -117.0375     33.5000 to    -117.0400     33.5000
 Warning: no grid points on interval from    -117.0400     33.5000 to    -117.0425     33.5000
 Warning: no grid points on interval from    -117.0425     33.5000 to    -117.0450     33.5000
 Warning: no grid points on interval from    -117.0450     33.5000 to    -117.0475     33.5000
 Warning: no grid points on interval from    -117.0475     33.5000 to    -117.0500     33.5000
 Warning: no grid points on interval from    -117.0500     33.5000 to    -117.0525     33.5000
 Warning: no grid points on interval from    -117.0525     33.5000 to    -117.0550     33.5000
 Warning: no grid points on interval from    -117.0550     33.5000 to    -117.0575     33.5000
 Warning: no grid points on interval from    -117.0575     33.5000 to    -117.0600     33.5000
 Warning: no grid points on interval from    -117.0600     33.5000 to    -117.0625     33.5000
 Warning: no grid points on interval from    -117.0625     33.5000 to    -117.0650     33.5000
 Warning: no grid points on interval from    -117.0650     33.5000 to    -117.0675     33.5000
 Warning: no grid points on interval from    -117.0675     33.5000 to    -117.0700     33.5000
 Warning: no grid points on interval from    -117.0700     33.5000 to    -117.0725     33.5000
 Warning: no grid points on interval from    -117.0725     33.5000 to    -117.0750     33.5000
 Warning: no grid points on interval from    -117.0750     33.5000 to    -117.0775     33.5000
 Warning: no grid points on interval from    -117.0775     33.5000 to    -117.0800     33.5000
 Warning: no grid points on interval from    -117.0800     33.5000 to    -117.0825     33.5000
 Warning: no grid points on interval from    -117.0825     33.5000 to    -117.0850     33.5000
 Warning: no grid points on interval from    -117.0850     33.5000 to    -117.0875     33.5000
 Warning: no grid points on interval from    -117.0875     33.5000 to    -117.0900     33.5000
 Warning: no grid points on interval from    -117.0900     33.5000 to    -117.0925     33.5000
 Warning: no grid points on interval from    -117.0925     33.5000 to    -117.0950     33.5000
 Warning: no grid points on interval from    -117.0950     33.5000 to    -117.0975     33.5000
 Warning: no grid points on interval from    -117.0975     33.5000 to    -117.1000     33.5000
 Warning: no grid points on interval from    -117.1000     33.5000 to    -117.1025     33.5000
 Warning: no grid points on interval from    -117.1025     33.5000 to    -117.1050     33.5000
 Warning: no grid points on interval from    -117.1050     33.5000 to    -117.1075     33.5000
 Warning: no grid points on interval from    -117.1075     33.5000 to    -117.1100     33.5000
 Warning: no grid points on interval from    -117.1100     33.5000 to    -117.1125     33.5000
 Warning: no grid points on interval from    -117.1125     33.5000 to    -117.1150     33.5000
 Warning: no grid points on interval from    -117.1150     33.5000 to    -117.1175     33.5000
 Warning: no grid points on interval from    -117.1175     33.5000 to    -117.1200     33.5000
 Warning: no grid points on interval from    -117.1200     33.5000 to    -117.1225     33.5000
 Warning: no grid points on interval from    -117.1225     33.5000 to    -117.1250     33.5000
 Warning: no grid points on interval from    -117.1250     33.5000 to    -117.1275     33.5000
 Warning: no grid points on interval from    -117.1275     33.5000 to    -117.1300     33.5000
 Warning: no grid points on interval from    -117.1300     33.5000 to    -117.1325     33.5000
 Warning: no grid points on interval from    -117.1325     33.5000 to    -117.1350     33.5000
 Warning: no grid points on interval from    -117.1350     33.5000 to    -117.1375     33.5000
 Warning: no grid points on interval from    -117.1375     33.5000 to    -117.1400     33.5000
 Warning: no grid points on interval from    -117.1400     33.5000 to    -117.1425     33.5000
 Warning: no grid points on interval from    -117.1425     33.5000 to    -117.1450     33.5000
 Warning: no grid points on interval from    -117.1450     33.5000 to    -117.1475     33.5000
 Warning: no grid points on interval from    -117.1475     33.5000 to    -117.1500     33.5000
 Warning: no grid points on interval from    -117.1500     33.5000 to    -117.1525     33.5000
 Warning: no grid points on interval from    -117.1525     33.5000 to    -117.1550     33.5000
 Warning: no grid points on interval from    -117.1550     33.5000 to    -117.1575     33.5000
 Warning: no grid points on interval from    -117.1575     33.5000 to    -117.1600     33.5000
 Warning: no grid points on interval from    -117.1600     33.5000 to    -117.1625     33.5000
 Warning: no grid points on interval from    -117.1625     33.5000 to    -117.1650     33.5000
 Warning: no grid points on interval from    -117.1650     33.5000 to    -117.1675     33.5000
 Warning: no grid points on interval from    -117.1675     33.5000 to    -117.1700     33.5000
 Warning: no grid points on interval from    -117.1700     33.5000 to    -117.1725     33.5000
 Warning: no grid points on interval from    -117.1725     33.5000 to    -117.1750     33.5000
 Warning: no grid points on interval from    -117.1750     33.5000 to    -117.1775     33.5000
 Warning: no grid points on interval from    -117.1775     33.5000 to    -117.1800     33.5000
 Warning: no grid points on interval from    -117.1800     33.5000 to    -117.1825     33.5000
 Warning: no grid points on interval from    -117.1825     33.5000 to    -117.1850     33.5000
 Warning: no grid points on interval from    -117.1850     33.5000 to    -117.1875     33.5000
 Warning: no grid points on interval from    -117.1875     33.5000 to    -117.1900     33.5000
 Warning: no grid points on interval from    -117.1900     33.5000 to    -117.1925     33.5000
 Warning: no grid points on interval from    -117.1925     33.5000 to    -117.1950     33.5000
 Warning: no grid points on interval from    -117.1950     33.5000 to    -117.1975     33.5000
 Warning: no grid points on interval from    -117.1975     33.5000 to    -117.2000     33.5000
 Warning: no grid points on interval from    -117.2000     33.5000 to    -117.2025     33.5000
 Warning: no grid points on interval from    -117.2025     33.5000 to    -117.2050     33.5000
 Warning: no grid points on interval from    -117.2050     33.5000 to    -117.2075     33.5000
 Warning: no grid points on interval from    -117.2075     33.5000 to    -117.2100     33.5000
 Warning: no grid points on interval from    -117.2100     33.5000 to    -117.2125     33.5000
 Warning: no grid points on interval from    -117.2125     33.5000 to    -117.2150     33.5000
 Warning: no grid points on interval from    -117.2150     33.5000 to    -117.2175     33.5000
 Warning: no grid points on interval from    -117.2175     33.5000 to    -117.2200     33.5000
 Warning: no grid points on interval from    -117.2200     33.5000 to    -117.2225     33.5000
 Warning: no grid points on interval from    -117.2225     33.5000 to    -117.2250     33.5000
 Warning: no grid points on interval from    -117.2250     33.5000 to    -117.2275     33.5000
 Warning: no grid points on interval from    -117.2275     33.5000 to    -117.2300     33.5000
 Warning: no grid points on interval from    -117.2300     33.5000 to    -117.2325     33.5000
 Warning: no grid points on interval from    -117.2325     33.5000 to    -117.2350     33.5000
 Warning: no grid points on interval from    -117.2350     33.5000 to    -117.2375     33.5000
 Warning: no grid points on interval from    -117.2375     33.5000 to    -117.2400     33.5000
 Warning: no grid points on interval from    -117.2400     33.5000 to    -117.2425     33.5000
 Warning: no grid points on interval from    -117.2425     33.5000 to    -117.2450     33.5000
 Warning: no grid points on interval from    -117.2450     33.5000 to    -117.2475     33.5000
 Warning: no grid points on interval from    -117.2475     33.5000 to    -117.2500     33.5000
 Warning: no grid points on interval from    -117.2500     33.5000 to    -117.2525     33.5000
 Warning: no grid points on interval from    -117.2525     33.5000 to    -117.2550     33.5000
 Warning: no grid points on interval from    -117.2550     33.5000 to    -117.2575     33.5000
 Warning: no grid points on interval from    -117.2575     33.5000 to    -117.2600     33.5000
 Warning: no grid points on interval from    -117.2600     33.5000 to    -117.2625     33.5000
 Warning: no grid points on interval from    -117.2625     33.5000 to    -117.2650     33.5000
 Warning: no grid points on interval from    -117.2650     33.5000 to    -117.2675     33.5000
 Warning: no grid points on interval from    -117.2675     33.5000 to    -117.2700     33.5000
 Warning: no grid points on interval from    -117.2700     33.5000 to    -117.2725     33.5000
 Warning: no grid points on interval from    -117.2725     33.5000 to    -117.2750     33.5000
 Warning: no grid points on interval from    -117.2750     33.5000 to    -117.2775     33.5000
 Warning: no grid points on interval from    -117.2775     33.5000 to    -117.2800     33.5000
 Warning: no grid points on interval from    -117.2800     33.5000 to    -117.2825     33.5000
 Warning: no grid points on interval from    -117.2825     33.5000 to    -117.2850     33.5000
 Warning: no grid points on interval from    -117.2850     33.5000 to    -117.2875     33.5000
 Warning: no grid points on interval from    -117.2875     33.5000 to    -117.2900     33.5000
 Warning: no grid points on interval from    -117.2900     33.5000 to    -117.2925     33.5000
 Warning: no grid points on interval from    -117.2925     33.5000 to    -117.2950     33.5000
 Warning: no grid points on interval from    -117.2950     33.5000 to    -117.2975     33.5000
 Warning: no grid points on interval from    -117.2975     33.5000 to    -117.3000     33.5000
 Warning: no grid points on interval from    -117.3000     33.5000 to    -117.3025     33.5000
 Warning: no grid points on interval from    -117.3025     33.5000 to    -117.3050     33.5000
 Warning: no grid points on interval from    -117.3050     33.5000 to    -117.3075     33.5000
 Warning: no grid points on interval from    -117.3075     33.5000 to    -117.3100     33.5000
 Warning: no grid points on interval from    -117.3100     33.5000 to    -117.3125     33.5000
 Warning: no grid points on interval from    -117.3125     33.5000 to    -117.3150     33.5000
 Warning: no grid points on interval from    -117.3150     33.5000 to    -117.3175     33.5000
 Warning: no grid points on interval from    -117.3175     33.5000 to    -117.3200     33.5000
 Warning: no grid points on interval from    -117.3200     33.5000 to    -117.3225     33.5000
 Warning: no grid points on interval from    -117.3225     33.5000 to    -117.3250     33.5000
 Warning: no grid points on interval from    -117.3250     33.5000 to    -117.3275     33.5000
 Warning: no grid points on interval from    -117.3275     33.5000 to    -117.3300     33.5000
 Warning: no grid points on interval from    -117.3300     33.5000 to    -117.3325     33.5000
 Warning: no grid points on interval from    -117.3325     33.5000 to    -117.3350     33.5000
 Warning: no grid points on interval from    -117.3350     33.5000 to    -117.3375     33.5000
 Warning: no grid points on interval from    -117.3375     33.5000 to    -117.3400     33.5000
 Warning: no grid points on interval from    -117.3400     33.5000 to    -117.3425     33.5000
 Warning: no grid points on interval from    -117.3425     33.5000 to    -117.3450     33.5000
 Warning: no grid points on interval from    -117.3450     33.5000 to    -117.3475     33.5000
 Warning: no grid points on interval from    -117.3475     33.5000 to    -117.3500     33.5000
 Warning: no grid points on interval from    -117.3500     33.5000 to    -117.3525     33.5000
 Warning: no grid points on interval from    -117.3525     33.5000 to    -117.3550     33.5000
 Warning: no grid points on interval from    -117.3550     33.5000 to    -117.3575     33.5000
 Warning: no grid points on interval from    -117.3575     33.5000 to    -117.3600     33.5000
 Warning: no grid points on interval from    -117.3600     33.5000 to    -117.3625     33.5000
 Warning: no grid points on interval from    -117.3625     33.5000 to    -117.3650     33.5000
 Warning: no grid points on interval from    -117.3650     33.5000 to    -117.3675     33.5000
 Warning: no grid points on interval from    -117.3675     33.5000 to    -117.3700     33.5000
 Warning: no grid points on interval from    -117.3700     33.5000 to    -117.3725     33.5000
 Warning: no grid points on interval from    -117.3725     33.5000 to    -117.3750     33.5000
 Warning: no grid points on interval from    -117.3750     33.5000 to    -117.3775     33.5000
 Warning: no grid points on interval from    -117.3775     33.5000 to    -117.3800     33.5000
 Warning: no grid points on interval from    -117.3800     33.5000 to    -117.3825     33.5000
 Warning: no grid points on interval from    -117.3825     33.5000 to    -117.3850     33.5000
 Warning: no grid points on interval from    -117.3850     33.5000 to    -117.3875     33.5000
 Warning: no grid points on interval from    -117.3875     33.5000 to    -117.3900     33.5000
[...]
 Warning: no grid points on interval from    -117.7500     33.0050 to    -117.7500     33.0025
 Warning: no grid points on interval from    -117.7500     32.9975 to    -117.7500     32.9950
 Warning: no grid points on interval from    -117.7500     32.9950 to    -117.7500     32.9925
 Warning: no grid points on interval from    -117.7500     32.9925 to    -117.7500     32.9900
 Warning: no grid points on interval from    -117.7500     32.9900 to    -117.7500     32.9875
 Warning: no grid points on interval from    -117.7500     32.9875 to    -117.7500     32.9850
 Warning: no grid points on interval from    -117.7500     32.9850 to    -117.7500     32.9825
 Warning: no grid points on interval from    -117.7500     32.9825 to    -117.7500     32.9800
 Warning: no grid points on interval from    -117.7500     32.9800 to    -117.7500     32.9775
 Warning: no grid points on interval from    -117.7500     32.9725 to    -117.7500     32.9700
 Warning: no grid points on interval from    -117.7500     32.9700 to    -117.7500     32.9675
 Warning: no grid points on interval from    -117.7500     32.9675 to    -117.7500     32.9650
 Warning: no grid points on interval from    -117.7500     32.9650 to    -117.7500     32.9625
 Warning: no grid points on interval from    -117.7500     32.9625 to    -117.7500     32.9600
 Warning: no grid points on interval from    -117.7500     32.9600 to    -117.7500     32.9575
 Warning: no grid points on interval from    -117.7500     32.9575 to    -117.7500     32.9550
 Warning: no grid points on interval from    -117.7500     32.9550 to    -117.7500     32.9525
 Warning: no grid points on interval from    -117.7500     32.9475 to    -117.7500     32.9450
 Warning: no grid points on interval from    -117.7500     32.9450 to    -117.7500     32.9425
 Warning: no grid points on interval from    -117.7500     32.9425 to    -117.7500     32.9400
 Warning: no grid points on interval from    -117.7500     32.9400 to    -117.7500     32.9375
 Warning: no grid points on interval from    -117.7500     32.9375 to    -117.7500     32.9350
 Warning: no grid points on interval from    -117.7500     32.9350 to    -117.7500     32.9325
 Warning: no grid points on interval from    -117.7500     32.9325 to    -117.7500     32.9300
 Warning: no grid points on interval from    -117.7500     32.9300 to    -117.7500     32.9275
 Warning: no grid points on interval from    -117.7500     32.9225 to    -117.7500     32.9200
 Warning: no grid points on interval from    -117.7500     32.9200 to    -117.7500     32.9175
 Warning: no grid points on interval from    -117.7500     32.9175 to    -117.7500     32.9150
 Warning: no grid points on interval from    -117.7500     32.9150 to    -117.7500     32.9125
 Warning: no grid points on interval from    -117.7500     32.9125 to    -117.7500     32.9100
 Warning: no grid points on interval from    -117.7500     32.9100 to    -117.7500     32.9075
 Warning: no grid points on interval from    -117.7500     32.9075 to    -117.7500     32.9050
 Warning: no grid points on interval from    -117.7500     32.9050 to    -117.7500     32.9025
 Warning: no grid points on interval from    -117.7500     32.8975 to    -117.7500     32.8950
 Warning: no grid points on interval from    -117.7500     32.8950 to    -117.7500     32.8925
 Warning: no grid points on interval from    -117.7500     32.8925 to    -117.7500     32.8900
 Warning: no grid points on interval from    -117.7500     32.8900 to    -117.7500     32.8875
 Warning: no grid points on interval from    -117.7500     32.8875 to    -117.7500     32.8850
 Warning: no grid points on interval from    -117.7500     32.8850 to    -117.7500     32.8825
 Warning: no grid points on interval from    -117.7500     32.8825 to    -117.7500     32.8800
 Warning: no grid points on interval from    -117.7500     32.8800 to    -117.7500     32.8775
 Warning: no grid points on interval from    -117.7500     32.8725 to    -117.7500     32.8700
 Warning: no grid points on interval from    -117.7500     32.8700 to    -117.7500     32.8675
 Warning: no grid points on interval from    -117.7500     32.8675 to    -117.7500     32.8650
 Warning: no grid points on interval from    -117.7500     32.8650 to    -117.7500     32.8625
 Warning: no grid points on interval from    -117.7500     32.8625 to    -117.7500     32.8600
 Warning: no grid points on interval from    -117.7500     32.8600 to    -117.7500     32.8575
 Warning: no grid points on interval from    -117.7500     32.8575 to    -117.7500     32.8550
 Warning: no grid points on interval from    -117.7500     32.8550 to    -117.7500     32.8525
 Warning: no grid points on interval from    -117.7500     32.8475 to    -117.7500     32.8450
 Warning: no grid points on interval from    -117.7500     32.8450 to    -117.7500     32.8425
 Warning: no grid points on interval from    -117.7500     32.8425 to    -117.7500     32.8400
 Warning: no grid points on interval from    -117.7500     32.8400 to    -117.7500     32.8375
 Warning: no grid points on interval from    -117.7500     32.8375 to    -117.7500     32.8350
 Warning: no grid points on interval from    -117.7500     32.8350 to    -117.7500     32.8325
 Warning: no grid points on interval from    -117.7500     32.8325 to    -117.7500     32.8300
 Warning: no grid points on interval from    -117.7500     32.8300 to    -117.7500     32.8275
 Warning: no grid points on interval from    -117.7500     32.8225 to    -117.7500     32.8200
 Warning: no grid points on interval from    -117.7500     32.8200 to    -117.7500     32.8175
 Warning: no grid points on interval from    -117.7500     32.8175 to    -117.7500     32.8150
 Warning: no grid points on interval from    -117.7500     32.8150 to    -117.7500     32.8125
 Warning: no grid points on interval from    -117.7500     32.8125 to    -117.7500     32.8100
 Warning: no grid points on interval from    -117.7500     32.8100 to    -117.7500     32.8075
 Warning: no grid points on interval from    -117.7500     32.8075 to    -117.7500     32.8050
 Warning: no grid points on interval from    -117.7500     32.8050 to    -117.7500     32.8025
 Warning: no grid points on interval from    -117.7500     32.7975 to    -117.7500     32.7950
 Warning: no grid points on interval from    -117.7500     32.7950 to    -117.7500     32.7925
 Warning: no grid points on interval from    -117.7500     32.7925 to    -117.7500     32.7900
 Warning: no grid points on interval from    -117.7500     32.7900 to    -117.7500     32.7875
 Warning: no grid points on interval from    -117.7500     32.7875 to    -117.7500     32.7850
 Warning: no grid points on interval from    -117.7500     32.7850 to    -117.7500     32.7825
 Warning: no grid points on interval from    -117.7500     32.7825 to    -117.7500     32.7800
 Warning: no grid points on interval from    -117.7500     32.7800 to    -117.7500     32.7775
 Warning: no grid points on interval from    -117.7500     32.7725 to    -117.7500     32.7700
 Warning: no grid points on interval from    -117.7500     32.7700 to    -117.7500     32.7675
 Warning: no grid points on interval from    -117.7500     32.7675 to    -117.7500     32.7650
 Warning: no grid points on interval from    -117.7500     32.7650 to    -117.7500     32.7625
 Warning: no grid points on interval from    -117.7500     32.7625 to    -117.7500     32.7600
 Warning: no grid points on interval from    -117.7500     32.7600 to    -117.7500     32.7575
 Warning: no grid points on interval from    -117.7500     32.7575 to    -117.7500     32.7550
 Warning: no grid points on interval from    -117.7500     32.7550 to    -117.7500     32.7525
 Warning: no grid points on interval from    -117.7500     32.7475 to    -117.7500     32.7450
 Warning: no grid points on interval from    -117.7500     32.7450 to    -117.7500     32.7425
 Warning: no grid points on interval from    -117.7500     32.7425 to    -117.7500     32.7400
 Warning: no grid points on interval from    -117.7500     32.7400 to    -117.7500     32.7375
 Warning: no grid points on interval from    -117.7500     32.7375 to    -117.7500     32.7350
 Warning: no grid points on interval from    -117.7500     32.7350 to    -117.7500     32.7325
 Warning: no grid points on interval from    -117.7500     32.7325 to    -117.7500     32.7300
 Warning: no grid points on interval from    -117.7500     32.7300 to    -117.7500     32.7275
 Warning: no grid points on interval from    -117.7500     32.7225 to    -117.7500     32.7200
 Warning: no grid points on interval from    -117.7500     32.7200 to    -117.7500     32.7175
 Warning: no grid points on interval from    -117.7500     32.7175 to    -117.7500     32.7150
 Warning: no grid points on interval from    -117.7500     32.7150 to    -117.7500     32.7125
 Warning: no grid points on interval from    -117.7500     32.7125 to    -117.7500     32.7100
 Warning: no grid points on interval from    -117.7500     32.7100 to    -117.7500     32.7075
 Warning: no grid points on interval from    -117.7500     32.7075 to    -117.7500     32.7050
 Warning: no grid points on interval from    -117.7500     32.7050 to    -117.7500     32.7025
 Warning: no grid points on interval from    -117.7500     32.6975 to    -117.7500     32.6950
 Warning: no grid points on interval from    -117.7500     32.6950 to    -117.7500     32.6925
 Warning: no grid points on interval from    -117.7500     32.6925 to    -117.7500     32.6900
 Warning: no grid points on interval from    -117.7500     32.6900 to    -117.7500     32.6875
 Warning: no grid points on interval from    -117.7500     32.6875 to    -117.7500     32.6850
 Warning: no grid points on interval from    -117.7500     32.6850 to    -117.7500     32.6825
 Warning: no grid points on interval from    -117.7500     32.6825 to    -117.7500     32.6800
 Warning: no grid points on interval from    -117.7500     32.6800 to    -117.7500     32.6775
 Warning: no grid points on interval from    -117.7500     32.6725 to    -117.7500     32.6700
 Warning: no grid points on interval from    -117.7500     32.6700 to    -117.7500     32.6675
 Warning: no grid points on interval from    -117.7500     32.6675 to    -117.7500     32.6650
 Warning: no grid points on interval from    -117.7500     32.6650 to    -117.7500     32.6625
 Warning: no grid points on interval from    -117.7500     32.6625 to    -117.7500     32.6600
 Warning: no grid points on interval from    -117.7500     32.6600 to    -117.7500     32.6575
 Warning: no grid points on interval from    -117.7500     32.6575 to    -117.7500     32.6550
 Warning: no grid points on interval from    -117.7500     32.6550 to    -117.7500     32.6525
 Warning: no grid points on interval from    -117.7500     32.6475 to    -117.7500     32.6450
 Warning: no grid points on interval from    -117.7500     32.6450 to    -117.7500     32.6425
 Warning: no grid points on interval from    -117.7500     32.6425 to    -117.7500     32.6400
 Warning: no grid points on interval from    -117.7500     32.6400 to    -117.7500     32.6375
 Warning: no grid points on interval from    -117.7500     32.6375 to    -117.7500     32.6350
 Warning: no grid points on interval from    -117.7500     32.6350 to    -117.7500     32.6325
 Warning: no grid points on interval from    -117.7500     32.6325 to    -117.7500     32.6300
 Warning: no grid points on interval from    -117.7500     32.6300 to    -117.7500     32.6275
 Warning: no grid points on interval from    -117.7500     32.6225 to    -117.7500     32.6200
 Warning: no grid points on interval from    -117.7500     32.6200 to    -117.7500     32.6175
 Warning: no grid points on interval from    -117.7500     32.6175 to    -117.7500     32.6150
 Warning: no grid points on interval from    -117.7500     32.6150 to    -117.7500     32.6125
 Warning: no grid points on interval from    -117.7500     32.6125 to    -117.7500     32.6100
 Warning: no grid points on interval from    -117.7500     32.6100 to    -117.7500     32.6075
 Warning: no grid points on interval from    -117.7500     32.6075 to    -117.7500     32.6050
 Warning: no grid points on interval from    -117.7500     32.6050 to    -117.7500     32.6025
 Warning: no grid points on interval from    -117.7500     32.5975 to    -117.7500     32.5950
 Warning: no grid points on interval from    -117.7500     32.5950 to    -117.7500     32.5925
 Warning: no grid points on interval from    -117.7500     32.5925 to    -117.7500     32.5900
 Warning: no grid points on interval from    -117.7500     32.5900 to    -117.7500     32.5875
 Warning: no grid points on interval from    -117.7500     32.5875 to    -117.7500     32.5850
 Warning: no grid points on interval from    -117.7500     32.5850 to    -117.7500     32.5825
 Warning: no grid points on interval from    -117.7500     32.5825 to    -117.7500     32.5800
 Warning: no grid points on interval from    -117.7500     32.5800 to    -117.7500     32.5775
 Warning: no grid points on interval from    -117.7500     32.5725 to    -117.7500     32.5700
 Warning: no grid points on interval from    -117.7500     32.5700 to    -117.7500     32.5675
 Warning: no grid points on interval from    -117.7500     32.5675 to    -117.7500     32.5650
 Warning: no grid points on interval from    -117.7500     32.5650 to    -117.7500     32.5625
 Warning: no grid points on interval from    -117.7500     32.5625 to    -117.7500     32.5600
 Warning: no grid points on interval from    -117.7500     32.5600 to    -117.7500     32.5575
 Warning: no grid points on interval from    -117.7500     32.5575 to    -117.7500     32.5550
 Warning: no grid points on interval from    -117.7500     32.5550 to    -117.7500     32.5525
 Warning: no grid points on interval from    -117.7500     32.5475 to    -117.7500     32.5450
 Warning: no grid points on interval from    -117.7500     32.5450 to    -117.7500     32.5425
 Warning: no grid points on interval from    -117.7500     32.5425 to    -117.7500     32.5400
 Warning: no grid points on interval from    -117.7500     32.5400 to    -117.7500     32.5375
 Warning: no grid points on interval from    -117.7500     32.5375 to    -117.7500     32.5350
 Warning: no grid points on interval from    -117.7500     32.5350 to    -117.7500     32.5325
 Warning: no grid points on interval from    -117.7500     32.5325 to    -117.7500     32.5300
 Warning: no grid points on interval from    -117.7500     32.5300 to    -117.7500     32.5275
 Warning: no grid points on interval from    -117.7500     32.5225 to    -117.7500     32.5200
 Warning: no grid points on interval from    -117.7500     32.5200 to    -117.7500     32.5175
 Warning: no grid points on interval from    -117.7500     32.5175 to    -117.7500     32.5150
 Warning: no grid points on interval from    -117.7500     32.5150 to    -117.7500     32.5125
 Warning: no grid points on interval from    -117.7500     32.5125 to    -117.7500     32.5100
 Warning: no grid points on interval from    -117.7500     32.5100 to    -117.7500     32.5075
 Warning: no grid points on interval from    -117.7500     32.5075 to    -117.7500     32.5050
 Warning: no grid points on interval from    -117.7500     32.5050 to    -117.7500     32.5025
    
 !
    
 GEN3
    
 !
    
 !***********************************************************
    
 !
    
 !generate binary Matlab-file for block-output
    
 BLOCK  'COMPGRID' NOHEAD 'HsSD.txt' LAYOUT 3 HS
    
 BLOCK  'COMPGRID' NOHEAD 'DirSD.txt' LAYOUT 3 DIR
    
 !
    
 TEST 1,0
    
 COMPUTE

----------------------------------------------------------------
                  COMPUTATIONAL PART OF SWAN
----------------------------------------------------------------

 Gridresolution       : MXC              31 MYC             41
                      : MCGRD           692
                      : MSC              32 MDC             36
                      : MTC               1
                      : NSTATC            0 ITERMX          50
 Propagation flags    : ITFRE             1 IREFR            1
 Source term flags    : IBOT              0 ISURF            1
                      : IWCAP             1 IWIND            3
                      : ITRIAD            0 IQUAD            2
                      : IVEG              0 ITURBV           0
                      : IMUD              0
 Spatial step         : DX       0.2500E-01 DY      0.2500E-01
 Spectral bin         : df/f     0.1000E+00 DDIR    0.1000E+02
 Physical constants   : GRAV     0.9810E+01 RHO     0.1025E+04
 Wind input           : WSPEED   0.1000E+01 DIR     0.1800E+03
 Tail parameters      : E(f)     0.4000E+01 E(k)    0.2500E+01
                      : A(f)     0.5000E+01 A(k)    0.3000E+01
 Accuracy parameters  : DREL     0.1000E-01 NPNTS   0.9950E+02
                      : DHABS    0.5000E-02 CURVAT  0.5000E-02
                      : GRWMX    0.1000E+00
 Drying/flooding      : LEVEL    0.0000E+00 DEPMIN  0.5000E-01
 The Cartesian convention for wind and wave directions is used
 Scheme for geographic propagation is SORDUP
 Scheme geogr. space  : PROPSC            2 ICMAX            5
 Scheme spectral space: CSS      0.5000E+00 CDD     0.5000E+00
 Current is off
 Quadruplets          : IQUAD             2
                      : LAMBDA   0.2500E+00 CNL4    0.3000E+08
                      : CSH1     0.5500E+01 CSH2    0.8330E+00
                      : CSH3    -0.1250E+01
 Maximum Ursell nr for Snl4 :    0.1000E+02
 Triads is off
 Bottom friction is off
 Vegetation is off
 Turbulence is off
 Fluid mud is off
 W-cap Komen (`84)    : EMPCOF   0.2360E-04 APM     0.3020E-02
                      : DELTA    0.1000E+01
 Battjes&Janssen (`78): ALPHA    0.1000E+01 GAMMA   0.7300E+00
 Set-up is off
 Diffraction is off
 Janssen (`89,`90)    : ALPHA    0.1000E-01 KAPPA   0.4100E+00
 Janssen (`89,`90)    : RHOA     0.1280E+01 RHOW    0.1025E+04

 1st and 2nd gen. wind: CF10     0.1880E+03 CF20    0.5900E+00
                      : CF30     0.1200E+00 CF40    0.2500E+03
                      : CF50     0.2300E-02 CF60   -0.2230E+00
                      : CF70     0.0000E+00 CF80   -0.5600E+00
                      : RHOAW    0.1249E-02 EDMLPM  0.3600E-02
                      : CDRAG    0.1230E-02 UMIN    0.1000E+01
                      : LIM_PM   0.1300E+00

  ---------------------------------------------------------------
  First guess by 2nd generation model flags for first iteration:
  ITER       1 GRWMX      0.1000E+23 ALFA       0.0000E+00
  IWIND      2 IWCAP      0 IQUAD      0
  ITRIAD     0 IBOT       0 ISURF      1
  IVEG       0 ITURBV     0 IMUD       0
  ---------------------------------------------------------------
 iteration    1; sweep 1
 iteration    1; sweep 2
 iteration    1; sweep 3
 iteration    1; sweep 4
 not possible to compute, first iteration

  ---------------------------------------------------------------
  Options given by user are activated for proceeding calculation:
  ITER       2 GRWMX      0.1000E+00 ALFA       0.0000E+00
  IWIND      3 IWCAP      1 IQUAD      2
  ITRIAD     0 IBOT       0 ISURF      1
  IVEG       0 ITURBV     0 IMUD       0
  ---------------------------------------------------------------
 iteration    2; sweep 1
 iteration    2; sweep 2
 iteration    2; sweep 3
 iteration    2; sweep 4
 accuracy OK in  89.28 % of wet grid points ( 99.50 % required)

 iteration    3; sweep 1
 iteration    3; sweep 2
 iteration    3; sweep 3
 iteration    3; sweep 4
 accuracy OK in   8.26 % of wet grid points ( 99.50 % required)

 iteration    4; sweep 1
 iteration    4; sweep 2
 iteration    4; sweep 3
 iteration    4; sweep 4
 accuracy OK in  98.55 % of wet grid points ( 99.50 % required)

 iteration    5; sweep 1
 iteration    5; sweep 2
 iteration    5; sweep 3
 iteration    5; sweep 4
 accuracy OK in 100.00 % of wet grid points ( 99.50 % required)


    
 STOP
